
---------- Begin Simulation Statistics ----------
final_tick                               1426834415500                       # Number of ticks from beginning of simulation (restored from checkpoints and never reset)
host_inst_rate                                  62490                       # Simulator instruction rate (inst/s)
host_mem_usage                                 702980                       # Number of bytes of host memory used
host_op_rate                                    62658                       # Simulator op (including micro ops) rate (op/s)
host_seconds                                 25064.57                       # Real time elapsed on the host
host_tick_rate                               56926354                       # Simulator tick rate (ticks/s)
sim_freq                                 1000000000000                       # Frequency of simulated ticks
sim_insts                                  1566281804                       # Number of instructions simulated
sim_ops                                    1570485583                       # Number of ops (including micro ops) simulated
sim_seconds                                  1.426834                       # Number of seconds simulated
sim_ticks                                1426834415500                       # Number of ticks simulated
system.cpu0.branchPred.BTBCorrect                   0                       # Number of correct BTB predictions (this stat may not work properly.
system.cpu0.branchPred.BTBHitPct            85.165633                       # BTB Hit Percentage
system.cpu0.branchPred.BTBHits              190351922                       # Number of BTB hits
system.cpu0.branchPred.BTBLookups           223507904                       # Number of BTB lookups
system.cpu0.branchPred.RASInCorrect                 0                       # Number of incorrect RAS predictions.
system.cpu0.branchPred.condIncorrect         12682055                       # Number of conditional branches incorrect
system.cpu0.branchPred.condPredicted        291262772                       # Number of conditional branches predicted
system.cpu0.branchPred.indirectHits          30453499                       # Number of indirect target hits.
system.cpu0.branchPred.indirectLookups       31061225                       # Number of indirect predictor lookups.
system.cpu0.branchPred.indirectMisses          607726                       # Number of indirect misses.
system.cpu0.branchPred.lookups              378053330                       # Number of BP lookups
system.cpu0.branchPred.usedRAS                      0                       # Number of times the RAS was used to get a target.
system.cpu0.branchPredindirectMispredicted      2276309                       # Number of mispredicted indirect branches.
system.cpu0.commit.amos                       2100288                       # Number of atomic instructions committed
system.cpu0.commit.branchMispredicts          8206211                       # The number of times a branch was mispredicted
system.cpu0.commit.branches                 343028150                       # Number of branches committed
system.cpu0.commit.bw_lim_events             45526608                       # number cycles where commit BW limit reached
system.cpu0.commit.commitNonSpecStalls        6309805                       # The number of times commit has been forced to stall to communicate backwards
system.cpu0.commit.commitSquashedInsts      162482420                       # The number of squashed insts skipped by commit
system.cpu0.commit.committedInsts          1408195238                       # Number of instructions committed
system.cpu0.commit.committedOps            1410298828                       # Number of ops (including micro ops) committed
system.cpu0.commit.committed_per_cycle::samples   2426130445                       # Number of insts commited each cycle
system.cpu0.commit.committed_per_cycle::mean     0.581296                       # Number of insts commited each cycle
system.cpu0.commit.committed_per_cycle::stdev     1.386220                       # Number of insts commited each cycle
system.cpu0.commit.committed_per_cycle::underflows            0      0.00%      0.00% # Number of insts commited each cycle
system.cpu0.commit.committed_per_cycle::0   1768092834     72.88%     72.88% # Number of insts commited each cycle
system.cpu0.commit.committed_per_cycle::1    387443354     15.97%     88.85% # Number of insts commited each cycle
system.cpu0.commit.committed_per_cycle::2     94217214      3.88%     92.73% # Number of insts commited each cycle
system.cpu0.commit.committed_per_cycle::3     80593911      3.32%     96.05% # Number of insts commited each cycle
system.cpu0.commit.committed_per_cycle::4     33706245      1.39%     97.44% # Number of insts commited each cycle
system.cpu0.commit.committed_per_cycle::5      8750258      0.36%     97.80% # Number of insts commited each cycle
system.cpu0.commit.committed_per_cycle::6      4749968      0.20%     98.00% # Number of insts commited each cycle
system.cpu0.commit.committed_per_cycle::7      3050053      0.13%     98.12% # Number of insts commited each cycle
system.cpu0.commit.committed_per_cycle::8     45526608      1.88%    100.00% # Number of insts commited each cycle
system.cpu0.commit.committed_per_cycle::overflows            0      0.00%    100.00% # Number of insts commited each cycle
system.cpu0.commit.committed_per_cycle::min_value            0                       # Number of insts commited each cycle
system.cpu0.commit.committed_per_cycle::max_value            8                       # Number of insts commited each cycle
system.cpu0.commit.committed_per_cycle::total   2426130445                       # Number of insts commited each cycle
system.cpu0.commit.fp_insts                        50                       # Number of committed floating point instructions.
system.cpu0.commit.function_calls            29098990                       # Number of function calls committed.
system.cpu0.commit.int_insts               1363656939                       # Number of committed integer instructions.
system.cpu0.commit.loads                    423707209                       # Number of loads committed
system.cpu0.commit.membars                    4203760                       # Number of memory barriers committed
system.cpu0.commit.op_class_0::No_OpClass      4203766      0.30%      0.30% # Class of committed instruction
system.cpu0.commit.op_class_0::IntAlu       798546373     56.62%     56.92% # Class of committed instruction
system.cpu0.commit.op_class_0::IntMult       12621993      0.89%     57.82% # Class of committed instruction
system.cpu0.commit.op_class_0::IntDiv         3672708      0.26%     58.08% # Class of committed instruction
system.cpu0.commit.op_class_0::FloatAdd             0      0.00%     58.08% # Class of committed instruction
system.cpu0.commit.op_class_0::FloatCmp             4      0.00%     58.08% # Class of committed instruction
system.cpu0.commit.op_class_0::FloatCvt            12      0.00%     58.08% # Class of committed instruction
system.cpu0.commit.op_class_0::FloatMult            0      0.00%     58.08% # Class of committed instruction
system.cpu0.commit.op_class_0::FloatMultAcc            0      0.00%     58.08% # Class of committed instruction
system.cpu0.commit.op_class_0::FloatDiv             2      0.00%     58.08% # Class of committed instruction
system.cpu0.commit.op_class_0::FloatMisc            4      0.00%     58.08% # Class of committed instruction
system.cpu0.commit.op_class_0::FloatSqrt            0      0.00%     58.08% # Class of committed instruction
system.cpu0.commit.op_class_0::SimdAdd              0      0.00%     58.08% # Class of committed instruction
system.cpu0.commit.op_class_0::SimdAddAcc            0      0.00%     58.08% # Class of committed instruction
system.cpu0.commit.op_class_0::SimdAlu              0      0.00%     58.08% # Class of committed instruction
system.cpu0.commit.op_class_0::SimdCmp              0      0.00%     58.08% # Class of committed instruction
system.cpu0.commit.op_class_0::SimdCvt              0      0.00%     58.08% # Class of committed instruction
system.cpu0.commit.op_class_0::SimdMisc             0      0.00%     58.08% # Class of committed instruction
system.cpu0.commit.op_class_0::SimdMult             0      0.00%     58.08% # Class of committed instruction
system.cpu0.commit.op_class_0::SimdMultAcc            0      0.00%     58.08% # Class of committed instruction
system.cpu0.commit.op_class_0::SimdShift            0      0.00%     58.08% # Class of committed instruction
system.cpu0.commit.op_class_0::SimdShiftAcc            0      0.00%     58.08% # Class of committed instruction
system.cpu0.commit.op_class_0::SimdDiv              0      0.00%     58.08% # Class of committed instruction
system.cpu0.commit.op_class_0::SimdSqrt             0      0.00%     58.08% # Class of committed instruction
system.cpu0.commit.op_class_0::SimdFloatAdd            0      0.00%     58.08% # Class of committed instruction
system.cpu0.commit.op_class_0::SimdFloatAlu            0      0.00%     58.08% # Class of committed instruction
system.cpu0.commit.op_class_0::SimdFloatCmp            0      0.00%     58.08% # Class of committed instruction
system.cpu0.commit.op_class_0::SimdFloatCvt            0      0.00%     58.08% # Class of committed instruction
system.cpu0.commit.op_class_0::SimdFloatDiv            0      0.00%     58.08% # Class of committed instruction
system.cpu0.commit.op_class_0::SimdFloatMisc            0      0.00%     58.08% # Class of committed instruction
system.cpu0.commit.op_class_0::SimdFloatMult            0      0.00%     58.08% # Class of committed instruction
system.cpu0.commit.op_class_0::SimdFloatMultAcc            0      0.00%     58.08% # Class of committed instruction
system.cpu0.commit.op_class_0::SimdFloatSqrt            0      0.00%     58.08% # Class of committed instruction
system.cpu0.commit.op_class_0::SimdReduceAdd            0      0.00%     58.08% # Class of committed instruction
system.cpu0.commit.op_class_0::SimdReduceAlu            0      0.00%     58.08% # Class of committed instruction
system.cpu0.commit.op_class_0::SimdReduceCmp            0      0.00%     58.08% # Class of committed instruction
system.cpu0.commit.op_class_0::SimdFloatReduceAdd            0      0.00%     58.08% # Class of committed instruction
system.cpu0.commit.op_class_0::SimdFloatReduceCmp            0      0.00%     58.08% # Class of committed instruction
system.cpu0.commit.op_class_0::SimdAes              0      0.00%     58.08% # Class of committed instruction
system.cpu0.commit.op_class_0::SimdAesMix            0      0.00%     58.08% # Class of committed instruction
system.cpu0.commit.op_class_0::SimdSha1Hash            0      0.00%     58.08% # Class of committed instruction
system.cpu0.commit.op_class_0::SimdSha1Hash2            0      0.00%     58.08% # Class of committed instruction
system.cpu0.commit.op_class_0::SimdSha256Hash            0      0.00%     58.08% # Class of committed instruction
system.cpu0.commit.op_class_0::SimdSha256Hash2            0      0.00%     58.08% # Class of committed instruction
system.cpu0.commit.op_class_0::SimdShaSigma2            0      0.00%     58.08% # Class of committed instruction
system.cpu0.commit.op_class_0::SimdShaSigma3            0      0.00%     58.08% # Class of committed instruction
system.cpu0.commit.op_class_0::SimdPredAlu            0      0.00%     58.08% # Class of committed instruction
system.cpu0.commit.op_class_0::MemRead      425807489     30.19%     88.27% # Class of committed instruction
system.cpu0.commit.op_class_0::MemWrite     165446449     11.73%    100.00% # Class of committed instruction
system.cpu0.commit.op_class_0::FloatMemRead            8      0.00%    100.00% # Class of committed instruction
system.cpu0.commit.op_class_0::FloatMemWrite           20      0.00%    100.00% # Class of committed instruction
system.cpu0.commit.op_class_0::IprAccess            0      0.00%    100.00% # Class of committed instruction
system.cpu0.commit.op_class_0::InstPrefetch            0      0.00%    100.00% # Class of committed instruction
system.cpu0.commit.op_class_0::total       1410298828                       # Class of committed instruction
system.cpu0.commit.refs                     591253966                       # Number of memory references committed
system.cpu0.commit.swp_count                        0                       # Number of s/w prefetches committed
system.cpu0.commit.vec_insts                        0                       # Number of committed Vector instructions.
system.cpu0.committedInsts                 1408195238                       # Number of Instructions Simulated
system.cpu0.committedOps                   1410298828                       # Number of Ops (including micro ops) Simulated
system.cpu0.cpi                              2.020663                       # CPI: Cycles Per Instruction
system.cpu0.cpi_total                        2.020663                       # CPI: Total CPI of All Threads
system.cpu0.decode.BlockedCycles            472325323                       # Number of cycles decode is blocked
system.cpu0.decode.BranchMispred              4485682                       # Number of times decode detected a branch misprediction
system.cpu0.decode.BranchResolved           187127517                       # Number of times decode resolved a branch
system.cpu0.decode.DecodedInsts            1593103329                       # Number of instructions handled by decode
system.cpu0.decode.IdleCycles               849317162                       # Number of cycles decode is idle
system.cpu0.decode.RunCycles               1113286250                       # Number of cycles decode is running
system.cpu0.decode.SquashCycles               8222503                       # Number of cycles decode is squashing
system.cpu0.decode.SquashedInsts             15205607                       # Number of squashed instructions handled by decode
system.cpu0.decode.UnblockCycles              8825765                       # Number of cycles decode is unblocking
system.cpu0.dtb.accesses                            0                       # DTB accesses
system.cpu0.dtb.hits                                0                       # DTB hits
system.cpu0.dtb.misses                              0                       # DTB misses
system.cpu0.dtb.read_accesses                       0                       # DTB read accesses
system.cpu0.dtb.read_hits                           0                       # DTB read hits
system.cpu0.dtb.read_misses                         0                       # DTB read misses
system.cpu0.dtb.write_accesses                      0                       # DTB write accesses
system.cpu0.dtb.write_hits                          0                       # DTB write hits
system.cpu0.dtb.write_misses                        0                       # DTB write misses
system.cpu0.fetch.Branches                  378053330                       # Number of branches that fetch encountered
system.cpu0.fetch.CacheLines                281116000                       # Number of cache lines fetched
system.cpu0.fetch.Cycles                   1587128290                       # Number of cycles fetch has run and was not squashing or blocked
system.cpu0.fetch.IcacheSquashes              4440559                       # Number of outstanding Icache misses that were squashed
system.cpu0.fetch.IcacheWaitRetryStallCycles           76                       # Number of stall cycles due to full MSHR
system.cpu0.fetch.Insts                    1624486788                       # Number of instructions fetch has processed
system.cpu0.fetch.MiscStallCycles                 136                       # Number of cycles fetch has spent waiting on interrupts, or bad addresses, or out of MSHRs
system.cpu0.fetch.PendingTrapStallCycles          772                       # Number of stall cycles due to pending traps
system.cpu0.fetch.SquashCycles               25396946                       # Number of cycles fetch has spent squashing
system.cpu0.fetch.branchRate                 0.132861                       # Number of branch fetches per cycle
system.cpu0.fetch.icacheStallCycles         852149256                       # Number of cycles fetch is stalled on an Icache miss
system.cpu0.fetch.predictedBranches         220805421                       # Number of branches that fetch has predicted taken
system.cpu0.fetch.rate                       0.570899                       # Number of inst fetches per cycle
system.cpu0.fetch.rateDist::samples        2451977003                       # Number of instructions fetched each cycle (Total)
system.cpu0.fetch.rateDist::mean             0.663379                       # Number of instructions fetched each cycle (Total)
system.cpu0.fetch.rateDist::stdev            0.883291                       # Number of instructions fetched each cycle (Total)
system.cpu0.fetch.rateDist::underflows              0      0.00%      0.00% # Number of instructions fetched each cycle (Total)
system.cpu0.fetch.rateDist::0              1279319079     52.18%     52.18% # Number of instructions fetched each cycle (Total)
system.cpu0.fetch.rateDist::1               876153838     35.73%     87.91% # Number of instructions fetched each cycle (Total)
system.cpu0.fetch.rateDist::2               183907192      7.50%     95.41% # Number of instructions fetched each cycle (Total)
system.cpu0.fetch.rateDist::3                86773915      3.54%     98.95% # Number of instructions fetched each cycle (Total)
system.cpu0.fetch.rateDist::4                12247412      0.50%     99.45% # Number of instructions fetched each cycle (Total)
system.cpu0.fetch.rateDist::5                10249285      0.42%     99.86% # Number of instructions fetched each cycle (Total)
system.cpu0.fetch.rateDist::6                 1222307      0.05%     99.91% # Number of instructions fetched each cycle (Total)
system.cpu0.fetch.rateDist::7                 2100698      0.09%    100.00% # Number of instructions fetched each cycle (Total)
system.cpu0.fetch.rateDist::8                    3277      0.00%    100.00% # Number of instructions fetched each cycle (Total)
system.cpu0.fetch.rateDist::overflows               0      0.00%    100.00% # Number of instructions fetched each cycle (Total)
system.cpu0.fetch.rateDist::min_value               0                       # Number of instructions fetched each cycle (Total)
system.cpu0.fetch.rateDist::max_value               8                       # Number of instructions fetched each cycle (Total)
system.cpu0.fetch.rateDist::total          2451977003                       # Number of instructions fetched each cycle (Total)
system.cpu0.fp_regfile_reads                       44                       # number of floating regfile reads
system.cpu0.fp_regfile_writes                      23                       # number of floating regfile writes
system.cpu0.idleCycles                      393510412                       # Total number of cycles that the CPU has spent unscheduled due to idling
system.cpu0.iew.branchMispredicts             8327333                       # Number of branch mispredicts detected at execute
system.cpu0.iew.exec_branches               361795848                       # Number of branches executed
system.cpu0.iew.exec_nop                            0                       # number of nop insts executed
system.cpu0.iew.exec_rate                    0.545646                       # Inst execution rate
system.cpu0.iew.exec_refs                   679441630                       # number of memory reference insts executed
system.cpu0.iew.exec_stores                 202012296                       # Number of stores executed
system.cpu0.iew.exec_swp                            0                       # number of swp insts executed
system.cpu0.iew.iewBlockCycles              372937131                       # Number of cycles IEW is blocking
system.cpu0.iew.iewDispLoadInsts            476497845                       # Number of dispatched load instructions
system.cpu0.iew.iewDispNonSpecInsts           2106319                       # Number of dispatched non-speculative instructions
system.cpu0.iew.iewDispSquashedInsts          5024681                       # Number of squashed instructions skipped by dispatch
system.cpu0.iew.iewDispStoreInsts           207183718                       # Number of dispatched store instructions
system.cpu0.iew.iewDispatchedInsts         1572738361                       # Number of instructions dispatched to IQ
system.cpu0.iew.iewExecLoadInsts            477429334                       # Number of load instructions executed
system.cpu0.iew.iewExecSquashedInsts          8036755                       # Number of squashed instructions skipped in execute
system.cpu0.iew.iewExecutedInsts           1552628241                       # Number of executed instructions
system.cpu0.iew.iewIQFullEvents               1320698                       # Number of times the IQ has become full, causing a stall
system.cpu0.iew.iewIdleCycles                       0                       # Number of cycles IEW is idle
system.cpu0.iew.iewLSQFullEvents             13727736                       # Number of times the LSQ has become full, causing a stall
system.cpu0.iew.iewSquashCycles               8222503                       # Number of cycles IEW is squashing
system.cpu0.iew.iewUnblockCycles             17865234                       # Number of cycles IEW is unblocking
system.cpu0.iew.lsq.thread0.blockedLoads            0                       # Number of blocked loads due to partial load-store forwarding
system.cpu0.iew.lsq.thread0.cacheBlocked       652887                       # Number of times an access to memory failed due to the cache being blocked
system.cpu0.iew.lsq.thread0.forwLoads        33426430                       # Number of loads that had data forwarded from stores
system.cpu0.iew.lsq.thread0.ignoredResponses        24579                       # Number of memory responses ignored because the instruction is squashed
system.cpu0.iew.lsq.thread0.invAddrLoads            0                       # Number of loads ignored due to an invalid address
system.cpu0.iew.lsq.thread0.invAddrSwpfs            0                       # Number of software prefetches ignored due to an invalid address
system.cpu0.iew.lsq.thread0.memOrderViolation        16905                       # Number of memory ordering violations
system.cpu0.iew.lsq.thread0.rescheduledLoads      8422211                       # Number of loads that were rescheduled
system.cpu0.iew.lsq.thread0.squashedLoads     52790636                       # Number of loads squashed
system.cpu0.iew.lsq.thread0.squashedStores     39636950                       # Number of stores squashed
system.cpu0.iew.memOrderViolationEvents         16905                       # Number of memory order violations
system.cpu0.iew.predictedNotTakenIncorrect       528865                       # Number of branches that were predicted not taken incorrectly
system.cpu0.iew.predictedTakenIncorrect       7798468                       # Number of branches that were predicted taken incorrectly
system.cpu0.iew.wb_consumers                674376480                       # num instructions consuming a value
system.cpu0.iew.wb_count                   1539133353                       # cumulative count of insts written-back
system.cpu0.iew.wb_fanout                    0.852220                       # average fanout of values written-back
system.cpu0.iew.wb_producers                574717015                       # num instructions producing a value
system.cpu0.iew.wb_rate                      0.540903                       # insts written-back per cycle
system.cpu0.iew.wb_sent                    1539240734                       # cumulative count of insts sent to commit
system.cpu0.int_regfile_reads              1918075864                       # number of integer regfile reads
system.cpu0.int_regfile_writes              989975052                       # number of integer regfile writes
system.cpu0.ipc                              0.494887                       # IPC: Instructions Per Cycle
system.cpu0.ipc_total                        0.494887                       # IPC: Total IPC of All Threads
system.cpu0.iq.FU_type_0::No_OpClass          4205760      0.27%      0.27% # Type of FU issued
system.cpu0.iq.FU_type_0::IntAlu            859326361     55.06%     55.33% # Type of FU issued
system.cpu0.iq.FU_type_0::IntMult            12624658      0.81%     56.14% # Type of FU issued
system.cpu0.iq.FU_type_0::IntDiv              3673543      0.24%     56.38% # Type of FU issued
system.cpu0.iq.FU_type_0::FloatAdd                  0      0.00%     56.38% # Type of FU issued
system.cpu0.iq.FU_type_0::FloatCmp                  4      0.00%     56.38% # Type of FU issued
system.cpu0.iq.FU_type_0::FloatCvt                 12      0.00%     56.38% # Type of FU issued
system.cpu0.iq.FU_type_0::FloatMult                 0      0.00%     56.38% # Type of FU issued
system.cpu0.iq.FU_type_0::FloatMultAcc              0      0.00%     56.38% # Type of FU issued
system.cpu0.iq.FU_type_0::FloatDiv                  2      0.00%     56.38% # Type of FU issued
system.cpu0.iq.FU_type_0::FloatMisc                 4      0.00%     56.38% # Type of FU issued
system.cpu0.iq.FU_type_0::FloatSqrt                 0      0.00%     56.38% # Type of FU issued
system.cpu0.iq.FU_type_0::SimdAdd                   0      0.00%     56.38% # Type of FU issued
system.cpu0.iq.FU_type_0::SimdAddAcc                0      0.00%     56.38% # Type of FU issued
system.cpu0.iq.FU_type_0::SimdAlu                   0      0.00%     56.38% # Type of FU issued
system.cpu0.iq.FU_type_0::SimdCmp                   0      0.00%     56.38% # Type of FU issued
system.cpu0.iq.FU_type_0::SimdCvt                   0      0.00%     56.38% # Type of FU issued
system.cpu0.iq.FU_type_0::SimdMisc                  0      0.00%     56.38% # Type of FU issued
system.cpu0.iq.FU_type_0::SimdMult                  0      0.00%     56.38% # Type of FU issued
system.cpu0.iq.FU_type_0::SimdMultAcc               0      0.00%     56.38% # Type of FU issued
system.cpu0.iq.FU_type_0::SimdShift                 0      0.00%     56.38% # Type of FU issued
system.cpu0.iq.FU_type_0::SimdShiftAcc              0      0.00%     56.38% # Type of FU issued
system.cpu0.iq.FU_type_0::SimdDiv                   0      0.00%     56.38% # Type of FU issued
system.cpu0.iq.FU_type_0::SimdSqrt                  0      0.00%     56.38% # Type of FU issued
system.cpu0.iq.FU_type_0::SimdFloatAdd              0      0.00%     56.38% # Type of FU issued
system.cpu0.iq.FU_type_0::SimdFloatAlu              0      0.00%     56.38% # Type of FU issued
system.cpu0.iq.FU_type_0::SimdFloatCmp              0      0.00%     56.38% # Type of FU issued
system.cpu0.iq.FU_type_0::SimdFloatCvt              0      0.00%     56.38% # Type of FU issued
system.cpu0.iq.FU_type_0::SimdFloatDiv              0      0.00%     56.38% # Type of FU issued
system.cpu0.iq.FU_type_0::SimdFloatMisc             0      0.00%     56.38% # Type of FU issued
system.cpu0.iq.FU_type_0::SimdFloatMult             0      0.00%     56.38% # Type of FU issued
system.cpu0.iq.FU_type_0::SimdFloatMultAcc            0      0.00%     56.38% # Type of FU issued
system.cpu0.iq.FU_type_0::SimdFloatSqrt             0      0.00%     56.38% # Type of FU issued
system.cpu0.iq.FU_type_0::SimdReduceAdd             0      0.00%     56.38% # Type of FU issued
system.cpu0.iq.FU_type_0::SimdReduceAlu             0      0.00%     56.38% # Type of FU issued
system.cpu0.iq.FU_type_0::SimdReduceCmp             0      0.00%     56.38% # Type of FU issued
system.cpu0.iq.FU_type_0::SimdFloatReduceAdd            0      0.00%     56.38% # Type of FU issued
system.cpu0.iq.FU_type_0::SimdFloatReduceCmp            0      0.00%     56.38% # Type of FU issued
system.cpu0.iq.FU_type_0::SimdAes                   0      0.00%     56.38% # Type of FU issued
system.cpu0.iq.FU_type_0::SimdAesMix                0      0.00%     56.38% # Type of FU issued
system.cpu0.iq.FU_type_0::SimdSha1Hash              0      0.00%     56.38% # Type of FU issued
system.cpu0.iq.FU_type_0::SimdSha1Hash2             0      0.00%     56.38% # Type of FU issued
system.cpu0.iq.FU_type_0::SimdSha256Hash            0      0.00%     56.38% # Type of FU issued
system.cpu0.iq.FU_type_0::SimdSha256Hash2            0      0.00%     56.38% # Type of FU issued
system.cpu0.iq.FU_type_0::SimdShaSigma2             0      0.00%     56.38% # Type of FU issued
system.cpu0.iq.FU_type_0::SimdShaSigma3             0      0.00%     56.38% # Type of FU issued
system.cpu0.iq.FU_type_0::SimdPredAlu               0      0.00%     56.38% # Type of FU issued
system.cpu0.iq.FU_type_0::MemRead           480771640     30.81%     87.18% # Type of FU issued
system.cpu0.iq.FU_type_0::MemWrite          200062984     12.82%    100.00% # Type of FU issued
system.cpu0.iq.FU_type_0::FloatMemRead              9      0.00%    100.00% # Type of FU issued
system.cpu0.iq.FU_type_0::FloatMemWrite            20      0.00%    100.00% # Type of FU issued
system.cpu0.iq.FU_type_0::IprAccess                 0      0.00%    100.00% # Type of FU issued
system.cpu0.iq.FU_type_0::InstPrefetch              0      0.00%    100.00% # Type of FU issued
system.cpu0.iq.FU_type_0::total            1560664997                       # Type of FU issued
system.cpu0.iq.fp_alu_accesses                     55                       # Number of floating point alu accesses
system.cpu0.iq.fp_inst_queue_reads                106                       # Number of floating instruction queue reads
system.cpu0.iq.fp_inst_queue_wakeup_accesses           51                       # Number of floating instruction queue wakeup accesses
system.cpu0.iq.fp_inst_queue_writes                52                       # Number of floating instruction queue writes
system.cpu0.iq.fu_busy_cnt                    4677780                       # FU busy when requested
system.cpu0.iq.fu_busy_rate                  0.002997                       # FU busy rate (busy events/executed inst)
system.cpu0.iq.fu_full::No_OpClass                  0      0.00%      0.00% # attempts to use FU when none available
system.cpu0.iq.fu_full::IntAlu                 835632     17.86%     17.86% # attempts to use FU when none available
system.cpu0.iq.fu_full::IntMult                   277      0.01%     17.87% # attempts to use FU when none available
system.cpu0.iq.fu_full::IntDiv                 568245     12.15%     30.02% # attempts to use FU when none available
system.cpu0.iq.fu_full::FloatAdd                    0      0.00%     30.02% # attempts to use FU when none available
system.cpu0.iq.fu_full::FloatCmp                    0      0.00%     30.02% # attempts to use FU when none available
system.cpu0.iq.fu_full::FloatCvt                    0      0.00%     30.02% # attempts to use FU when none available
system.cpu0.iq.fu_full::FloatMult                   0      0.00%     30.02% # attempts to use FU when none available
system.cpu0.iq.fu_full::FloatMultAcc                0      0.00%     30.02% # attempts to use FU when none available
system.cpu0.iq.fu_full::FloatDiv                    0      0.00%     30.02% # attempts to use FU when none available
system.cpu0.iq.fu_full::FloatMisc                   0      0.00%     30.02% # attempts to use FU when none available
system.cpu0.iq.fu_full::FloatSqrt                   0      0.00%     30.02% # attempts to use FU when none available
system.cpu0.iq.fu_full::SimdAdd                     0      0.00%     30.02% # attempts to use FU when none available
system.cpu0.iq.fu_full::SimdAddAcc                  0      0.00%     30.02% # attempts to use FU when none available
system.cpu0.iq.fu_full::SimdAlu                     0      0.00%     30.02% # attempts to use FU when none available
system.cpu0.iq.fu_full::SimdCmp                     0      0.00%     30.02% # attempts to use FU when none available
system.cpu0.iq.fu_full::SimdCvt                     0      0.00%     30.02% # attempts to use FU when none available
system.cpu0.iq.fu_full::SimdMisc                    0      0.00%     30.02% # attempts to use FU when none available
system.cpu0.iq.fu_full::SimdMult                    0      0.00%     30.02% # attempts to use FU when none available
system.cpu0.iq.fu_full::SimdMultAcc                 0      0.00%     30.02% # attempts to use FU when none available
system.cpu0.iq.fu_full::SimdShift                   0      0.00%     30.02% # attempts to use FU when none available
system.cpu0.iq.fu_full::SimdShiftAcc                0      0.00%     30.02% # attempts to use FU when none available
system.cpu0.iq.fu_full::SimdDiv                     0      0.00%     30.02% # attempts to use FU when none available
system.cpu0.iq.fu_full::SimdSqrt                    0      0.00%     30.02% # attempts to use FU when none available
system.cpu0.iq.fu_full::SimdFloatAdd                0      0.00%     30.02% # attempts to use FU when none available
system.cpu0.iq.fu_full::SimdFloatAlu                0      0.00%     30.02% # attempts to use FU when none available
system.cpu0.iq.fu_full::SimdFloatCmp                0      0.00%     30.02% # attempts to use FU when none available
system.cpu0.iq.fu_full::SimdFloatCvt                0      0.00%     30.02% # attempts to use FU when none available
system.cpu0.iq.fu_full::SimdFloatDiv                0      0.00%     30.02% # attempts to use FU when none available
system.cpu0.iq.fu_full::SimdFloatMisc               0      0.00%     30.02% # attempts to use FU when none available
system.cpu0.iq.fu_full::SimdFloatMult               0      0.00%     30.02% # attempts to use FU when none available
system.cpu0.iq.fu_full::SimdFloatMultAcc            0      0.00%     30.02% # attempts to use FU when none available
system.cpu0.iq.fu_full::SimdFloatSqrt               0      0.00%     30.02% # attempts to use FU when none available
system.cpu0.iq.fu_full::SimdReduceAdd               0      0.00%     30.02% # attempts to use FU when none available
system.cpu0.iq.fu_full::SimdReduceAlu               0      0.00%     30.02% # attempts to use FU when none available
system.cpu0.iq.fu_full::SimdReduceCmp               0      0.00%     30.02% # attempts to use FU when none available
system.cpu0.iq.fu_full::SimdFloatReduceAdd            0      0.00%     30.02% # attempts to use FU when none available
system.cpu0.iq.fu_full::SimdFloatReduceCmp            0      0.00%     30.02% # attempts to use FU when none available
system.cpu0.iq.fu_full::SimdAes                     0      0.00%     30.02% # attempts to use FU when none available
system.cpu0.iq.fu_full::SimdAesMix                  0      0.00%     30.02% # attempts to use FU when none available
system.cpu0.iq.fu_full::SimdSha1Hash                0      0.00%     30.02% # attempts to use FU when none available
system.cpu0.iq.fu_full::SimdSha1Hash2               0      0.00%     30.02% # attempts to use FU when none available
system.cpu0.iq.fu_full::SimdSha256Hash              0      0.00%     30.02% # attempts to use FU when none available
system.cpu0.iq.fu_full::SimdSha256Hash2             0      0.00%     30.02% # attempts to use FU when none available
system.cpu0.iq.fu_full::SimdShaSigma2               0      0.00%     30.02% # attempts to use FU when none available
system.cpu0.iq.fu_full::SimdShaSigma3               0      0.00%     30.02% # attempts to use FU when none available
system.cpu0.iq.fu_full::SimdPredAlu                 0      0.00%     30.02% # attempts to use FU when none available
system.cpu0.iq.fu_full::MemRead               2667738     57.03%     87.05% # attempts to use FU when none available
system.cpu0.iq.fu_full::MemWrite               605884     12.95%    100.00% # attempts to use FU when none available
system.cpu0.iq.fu_full::FloatMemRead                0      0.00%    100.00% # attempts to use FU when none available
system.cpu0.iq.fu_full::FloatMemWrite               4      0.00%    100.00% # attempts to use FU when none available
system.cpu0.iq.fu_full::IprAccess                   0      0.00%    100.00% # attempts to use FU when none available
system.cpu0.iq.fu_full::InstPrefetch                0      0.00%    100.00% # attempts to use FU when none available
system.cpu0.iq.int_alu_accesses            1561136962                       # Number of integer alu accesses
system.cpu0.iq.int_inst_queue_reads        5578256266                       # Number of integer instruction queue reads
system.cpu0.iq.int_inst_queue_wakeup_accesses   1539133302                       # Number of integer instruction queue wakeup accesses
system.cpu0.iq.int_inst_queue_writes       1735194393                       # Number of integer instruction queue writes
system.cpu0.iq.iqInstsAdded                1566427953                       # Number of instructions added to the IQ (excludes non-spec)
system.cpu0.iq.iqInstsIssued               1560664997                       # Number of instructions issued
system.cpu0.iq.iqNonSpecInstsAdded            6310408                       # Number of non-speculative instructions added to the IQ
system.cpu0.iq.iqSquashedInstsExamined      162439448                       # Number of squashed instructions iterated over during squash; mainly for profiling
system.cpu0.iq.iqSquashedInstsIssued           271596                       # Number of squashed instructions issued
system.cpu0.iq.iqSquashedNonSpecRemoved           603                       # Number of squashed non-spec instructions that were removed
system.cpu0.iq.iqSquashedOperandsExamined     35842733                       # Number of squashed operands that are examined and possibly removed from graph
system.cpu0.iq.issued_per_cycle::samples   2451977003                       # Number of insts issued each cycle
system.cpu0.iq.issued_per_cycle::mean        0.636493                       # Number of insts issued each cycle
system.cpu0.iq.issued_per_cycle::stdev       0.843188                       # Number of insts issued each cycle
system.cpu0.iq.issued_per_cycle::underflows            0      0.00%      0.00% # Number of insts issued each cycle
system.cpu0.iq.issued_per_cycle::0         1329072297     54.20%     54.20% # Number of insts issued each cycle
system.cpu0.iq.issued_per_cycle::1          782268385     31.90%     86.11% # Number of insts issued each cycle
system.cpu0.iq.issued_per_cycle::2          276867088     11.29%     97.40% # Number of insts issued each cycle
system.cpu0.iq.issued_per_cycle::3           43237562      1.76%     99.16% # Number of insts issued each cycle
system.cpu0.iq.issued_per_cycle::4           13300163      0.54%     99.71% # Number of insts issued each cycle
system.cpu0.iq.issued_per_cycle::5            2737432      0.11%     99.82% # Number of insts issued each cycle
system.cpu0.iq.issued_per_cycle::6            3624084      0.15%     99.96% # Number of insts issued each cycle
system.cpu0.iq.issued_per_cycle::7             642502      0.03%     99.99% # Number of insts issued each cycle
system.cpu0.iq.issued_per_cycle::8             227490      0.01%    100.00% # Number of insts issued each cycle
system.cpu0.iq.issued_per_cycle::overflows            0      0.00%    100.00% # Number of insts issued each cycle
system.cpu0.iq.issued_per_cycle::min_value            0                       # Number of insts issued each cycle
system.cpu0.iq.issued_per_cycle::max_value            8                       # Number of insts issued each cycle
system.cpu0.iq.issued_per_cycle::total     2451977003                       # Number of insts issued each cycle
system.cpu0.iq.rate                          0.548470                       # Inst issue rate
system.cpu0.iq.vec_alu_accesses                     0                       # Number of vector alu accesses
system.cpu0.iq.vec_inst_queue_reads                 0                       # Number of vector instruction queue reads
system.cpu0.iq.vec_inst_queue_wakeup_accesses            0                       # Number of vector instruction queue wakeup accesses
system.cpu0.iq.vec_inst_queue_writes                0                       # Number of vector instruction queue writes
system.cpu0.itb.accesses                            0                       # DTB accesses
system.cpu0.itb.hits                                0                       # DTB hits
system.cpu0.itb.misses                              0                       # DTB misses
system.cpu0.itb.read_accesses                       0                       # DTB read accesses
system.cpu0.itb.read_hits                           0                       # DTB read hits
system.cpu0.itb.read_misses                         0                       # DTB read misses
system.cpu0.itb.write_accesses                      0                       # DTB write accesses
system.cpu0.itb.write_hits                          0                       # DTB write hits
system.cpu0.itb.write_misses                        0                       # DTB write misses
system.cpu0.memDep0.conflictingLoads         20928428                       # Number of conflicting loads.
system.cpu0.memDep0.conflictingStores        11706904                       # Number of conflicting stores.
system.cpu0.memDep0.insertedLoads           476497845                       # Number of loads inserted to the mem dependence unit.
system.cpu0.memDep0.insertedStores          207183718                       # Number of stores inserted to the mem dependence unit.
system.cpu0.misc_regfile_reads                   1899                       # number of misc regfile reads
system.cpu0.misc_regfile_writes                    22                       # number of misc regfile writes
system.cpu0.numCycles                      2845487415                       # number of cpu cycles simulated
system.cpu0.numWorkItemsCompleted                   0                       # number of work items this cpu completed
system.cpu0.numWorkItemsStarted                     0                       # number of work items this cpu started
system.cpu0.quiesceCycles                     9360383                       # Total number of cycles that CPU has spent quiesced or waiting for an interrupt
system.cpu0.rename.BlockCycles              407353685                       # Number of cycles rename is blocking
system.cpu0.rename.CommittedMaps            911019805                       # Number of HB maps that are committed
system.cpu0.rename.IQFullEvents              15933928                       # Number of times rename has blocked due to IQ full
system.cpu0.rename.IdleCycles               858925604                       # Number of cycles rename is idle
system.cpu0.rename.LQFullEvents              26826295                       # Number of times rename has blocked due to LQ full
system.cpu0.rename.ROBFullEvents                35152                       # Number of times rename has blocked due to ROB full
system.cpu0.rename.RenameLookups           1965163220                       # Number of register rename lookups that rename has made
system.cpu0.rename.RenamedInsts            1588261801                       # Number of instructions processed by rename
system.cpu0.rename.RenamedOperands         1026352301                       # Number of destination operands rename has renamed
system.cpu0.rename.RunCycles               1111346403                       # Number of cycles rename is running
system.cpu0.rename.SQFullEvents              22913936                       # Number of times rename has blocked due to SQ full
system.cpu0.rename.SquashCycles               8222503                       # Number of cycles rename is squashing
system.cpu0.rename.UnblockCycles             65960592                       # Number of cycles rename is unblocking
system.cpu0.rename.UndoneMaps               115332429                       # Number of HB maps that are undone due to squashing
system.cpu0.rename.fp_rename_lookups               44                       # Number of floating rename lookups
system.cpu0.rename.int_rename_lookups      1965163176                       # Number of integer rename lookups
system.cpu0.rename.serializeStallCycles        168216                       # count of cycles rename stalled for serializing inst
system.cpu0.rename.serializingInsts              5952                       # count of serializing insts renamed
system.cpu0.rename.skidInsts                 34555097                       # count of insts added to the skid buffer
system.cpu0.rename.tempSerializingInsts          5941                       # count of temporary serializing insts renamed
system.cpu0.rob.rob_reads                  3953360879                       # The number of ROB reads
system.cpu0.rob.rob_writes                 3171439751                       # The number of ROB writes
system.cpu0.timesIdled                       26529399                       # Number of times that the entire CPU went into an idle state and unscheduled itself
system.cpu0.workload.numSyscalls                 1866                       # Number of system calls
system.cpu1.branchPred.BTBCorrect                   0                       # Number of correct BTB predictions (this stat may not work properly.
system.cpu1.branchPred.BTBHitPct            80.875407                       # BTB Hit Percentage
system.cpu1.branchPred.BTBHits               24022795                       # Number of BTB hits
system.cpu1.branchPred.BTBLookups            29703461                       # Number of BTB lookups
system.cpu1.branchPred.RASInCorrect                 0                       # Number of incorrect RAS predictions.
system.cpu1.branchPred.condIncorrect          2798895                       # Number of conditional branches incorrect
system.cpu1.branchPred.condPredicted         32171850                       # Number of conditional branches predicted
system.cpu1.branchPred.indirectHits           2097477                       # Number of indirect target hits.
system.cpu1.branchPred.indirectLookups        2106274                       # Number of indirect predictor lookups.
system.cpu1.branchPred.indirectMisses            8797                       # Number of indirect misses.
system.cpu1.branchPred.lookups               40656402                       # Number of BP lookups
system.cpu1.branchPred.usedRAS                      0                       # Number of times the RAS was used to get a target.
system.cpu1.branchPredindirectMispredicted       148935                       # Number of mispredicted indirect branches.
system.cpu1.commit.amos                       2100008                       # Number of atomic instructions committed
system.cpu1.commit.branchMispredicts          1894511                       # The number of times a branch was mispredicted
system.cpu1.commit.branches                  34327644                       # Number of branches committed
system.cpu1.commit.bw_lim_events              5620279                       # number cycles where commit BW limit reached
system.cpu1.commit.commitNonSpecStalls        6300716                       # The number of times commit has been forced to stall to communicate backwards
system.cpu1.commit.commitSquashedInsts       14734324                       # The number of squashed insts skipped by commit
system.cpu1.commit.committedInsts           158086566                       # Number of instructions committed
system.cpu1.commit.committedOps             160186755                       # Number of ops (including micro ops) committed
system.cpu1.commit.committed_per_cycle::samples    498212096                       # Number of insts commited each cycle
system.cpu1.commit.committed_per_cycle::mean     0.321523                       # Number of insts commited each cycle
system.cpu1.commit.committed_per_cycle::stdev     1.122700                       # Number of insts commited each cycle
system.cpu1.commit.committed_per_cycle::underflows            0      0.00%      0.00% # Number of insts commited each cycle
system.cpu1.commit.committed_per_cycle::0    431023084     86.51%     86.51% # Number of insts commited each cycle
system.cpu1.commit.committed_per_cycle::1     34535768      6.93%     93.45% # Number of insts commited each cycle
system.cpu1.commit.committed_per_cycle::2     13616687      2.73%     96.18% # Number of insts commited each cycle
system.cpu1.commit.committed_per_cycle::3      6312950      1.27%     97.45% # Number of insts commited each cycle
system.cpu1.commit.committed_per_cycle::4      3147449      0.63%     98.08% # Number of insts commited each cycle
system.cpu1.commit.committed_per_cycle::5      2350484      0.47%     98.55% # Number of insts commited each cycle
system.cpu1.commit.committed_per_cycle::6      1063450      0.21%     98.76% # Number of insts commited each cycle
system.cpu1.commit.committed_per_cycle::7       541945      0.11%     98.87% # Number of insts commited each cycle
system.cpu1.commit.committed_per_cycle::8      5620279      1.13%    100.00% # Number of insts commited each cycle
system.cpu1.commit.committed_per_cycle::overflows            0      0.00%    100.00% # Number of insts commited each cycle
system.cpu1.commit.committed_per_cycle::min_value            0                       # Number of insts commited each cycle
system.cpu1.commit.committed_per_cycle::max_value            8                       # Number of insts commited each cycle
system.cpu1.commit.committed_per_cycle::total    498212096                       # Number of insts commited each cycle
system.cpu1.commit.fp_insts                        12                       # Number of committed floating point instructions.
system.cpu1.commit.function_calls             3699936                       # Number of function calls committed.
system.cpu1.commit.int_insts                152879508                       # Number of committed integer instructions.
system.cpu1.commit.loads                     38905075                       # Number of loads committed
system.cpu1.commit.membars                    4200137                       # Number of memory barriers committed
system.cpu1.commit.op_class_0::No_OpClass      4200137      2.62%      2.62% # Class of committed instruction
system.cpu1.commit.op_class_0::IntAlu        98387804     61.42%     64.04% # Class of committed instruction
system.cpu1.commit.op_class_0::IntMult         265371      0.17%     64.21% # Class of committed instruction
system.cpu1.commit.op_class_0::IntDiv          526963      0.33%     64.54% # Class of committed instruction
system.cpu1.commit.op_class_0::FloatAdd             0      0.00%     64.54% # Class of committed instruction
system.cpu1.commit.op_class_0::FloatCmp             0      0.00%     64.54% # Class of committed instruction
system.cpu1.commit.op_class_0::FloatCvt             0      0.00%     64.54% # Class of committed instruction
system.cpu1.commit.op_class_0::FloatMult            0      0.00%     64.54% # Class of committed instruction
system.cpu1.commit.op_class_0::FloatMultAcc            0      0.00%     64.54% # Class of committed instruction
system.cpu1.commit.op_class_0::FloatDiv             0      0.00%     64.54% # Class of committed instruction
system.cpu1.commit.op_class_0::FloatMisc            0      0.00%     64.54% # Class of committed instruction
system.cpu1.commit.op_class_0::FloatSqrt            0      0.00%     64.54% # Class of committed instruction
system.cpu1.commit.op_class_0::SimdAdd              0      0.00%     64.54% # Class of committed instruction
system.cpu1.commit.op_class_0::SimdAddAcc            0      0.00%     64.54% # Class of committed instruction
system.cpu1.commit.op_class_0::SimdAlu              0      0.00%     64.54% # Class of committed instruction
system.cpu1.commit.op_class_0::SimdCmp              0      0.00%     64.54% # Class of committed instruction
system.cpu1.commit.op_class_0::SimdCvt              0      0.00%     64.54% # Class of committed instruction
system.cpu1.commit.op_class_0::SimdMisc             0      0.00%     64.54% # Class of committed instruction
system.cpu1.commit.op_class_0::SimdMult             0      0.00%     64.54% # Class of committed instruction
system.cpu1.commit.op_class_0::SimdMultAcc            0      0.00%     64.54% # Class of committed instruction
system.cpu1.commit.op_class_0::SimdShift            0      0.00%     64.54% # Class of committed instruction
system.cpu1.commit.op_class_0::SimdShiftAcc            0      0.00%     64.54% # Class of committed instruction
system.cpu1.commit.op_class_0::SimdDiv              0      0.00%     64.54% # Class of committed instruction
system.cpu1.commit.op_class_0::SimdSqrt             0      0.00%     64.54% # Class of committed instruction
system.cpu1.commit.op_class_0::SimdFloatAdd            0      0.00%     64.54% # Class of committed instruction
system.cpu1.commit.op_class_0::SimdFloatAlu            0      0.00%     64.54% # Class of committed instruction
system.cpu1.commit.op_class_0::SimdFloatCmp            0      0.00%     64.54% # Class of committed instruction
system.cpu1.commit.op_class_0::SimdFloatCvt            0      0.00%     64.54% # Class of committed instruction
system.cpu1.commit.op_class_0::SimdFloatDiv            0      0.00%     64.54% # Class of committed instruction
system.cpu1.commit.op_class_0::SimdFloatMisc            0      0.00%     64.54% # Class of committed instruction
system.cpu1.commit.op_class_0::SimdFloatMult            0      0.00%     64.54% # Class of committed instruction
system.cpu1.commit.op_class_0::SimdFloatMultAcc            0      0.00%     64.54% # Class of committed instruction
system.cpu1.commit.op_class_0::SimdFloatSqrt            0      0.00%     64.54% # Class of committed instruction
system.cpu1.commit.op_class_0::SimdReduceAdd            0      0.00%     64.54% # Class of committed instruction
system.cpu1.commit.op_class_0::SimdReduceAlu            0      0.00%     64.54% # Class of committed instruction
system.cpu1.commit.op_class_0::SimdReduceCmp            0      0.00%     64.54% # Class of committed instruction
system.cpu1.commit.op_class_0::SimdFloatReduceAdd            0      0.00%     64.54% # Class of committed instruction
system.cpu1.commit.op_class_0::SimdFloatReduceCmp            0      0.00%     64.54% # Class of committed instruction
system.cpu1.commit.op_class_0::SimdAes              0      0.00%     64.54% # Class of committed instruction
system.cpu1.commit.op_class_0::SimdAesMix            0      0.00%     64.54% # Class of committed instruction
system.cpu1.commit.op_class_0::SimdSha1Hash            0      0.00%     64.54% # Class of committed instruction
system.cpu1.commit.op_class_0::SimdSha1Hash2            0      0.00%     64.54% # Class of committed instruction
system.cpu1.commit.op_class_0::SimdSha256Hash            0      0.00%     64.54% # Class of committed instruction
system.cpu1.commit.op_class_0::SimdSha256Hash2            0      0.00%     64.54% # Class of committed instruction
system.cpu1.commit.op_class_0::SimdShaSigma2            0      0.00%     64.54% # Class of committed instruction
system.cpu1.commit.op_class_0::SimdShaSigma3            0      0.00%     64.54% # Class of committed instruction
system.cpu1.commit.op_class_0::SimdPredAlu            0      0.00%     64.54% # Class of committed instruction
system.cpu1.commit.op_class_0::MemRead       41005083     25.60%     90.14% # Class of committed instruction
system.cpu1.commit.op_class_0::MemWrite      15801385      9.86%    100.00% # Class of committed instruction
system.cpu1.commit.op_class_0::FloatMemRead            0      0.00%    100.00% # Class of committed instruction
system.cpu1.commit.op_class_0::FloatMemWrite           12      0.00%    100.00% # Class of committed instruction
system.cpu1.commit.op_class_0::IprAccess            0      0.00%    100.00% # Class of committed instruction
system.cpu1.commit.op_class_0::InstPrefetch            0      0.00%    100.00% # Class of committed instruction
system.cpu1.commit.op_class_0::total        160186755                       # Class of committed instruction
system.cpu1.commit.refs                      56806480                       # Number of memory references committed
system.cpu1.commit.swp_count                        0                       # Number of s/w prefetches committed
system.cpu1.commit.vec_insts                        0                       # Number of committed Vector instructions.
system.cpu1.committedInsts                  158086566                       # Number of Instructions Simulated
system.cpu1.committedOps                    160186755                       # Number of Ops (including micro ops) Simulated
system.cpu1.cpi                              3.212288                       # CPI: Cycles Per Instruction
system.cpu1.cpi_total                        3.212288                       # CPI: Total CPI of All Threads
system.cpu1.decode.BlockedCycles            360161915                       # Number of cycles decode is blocked
system.cpu1.decode.BranchMispred               919304                       # Number of times decode detected a branch misprediction
system.cpu1.decode.BranchResolved            22819089                       # Number of times decode resolved a branch
system.cpu1.decode.DecodedInsts             181878784                       # Number of instructions handled by decode
system.cpu1.decode.IdleCycles                41798522                       # Number of cycles decode is idle
system.cpu1.decode.RunCycles                 92260435                       # Number of cycles decode is running
system.cpu1.decode.SquashCycles               1895653                       # Number of cycles decode is squashing
system.cpu1.decode.SquashedInsts              2168977                       # Number of squashed instructions handled by decode
system.cpu1.decode.UnblockCycles              5294207                       # Number of cycles decode is unblocking
system.cpu1.dtb.accesses                            0                       # DTB accesses
system.cpu1.dtb.hits                                0                       # DTB hits
system.cpu1.dtb.misses                              0                       # DTB misses
system.cpu1.dtb.read_accesses                       0                       # DTB read accesses
system.cpu1.dtb.read_hits                           0                       # DTB read hits
system.cpu1.dtb.read_misses                         0                       # DTB read misses
system.cpu1.dtb.write_accesses                      0                       # DTB write accesses
system.cpu1.dtb.write_hits                          0                       # DTB write hits
system.cpu1.dtb.write_misses                        0                       # DTB write misses
system.cpu1.fetch.Branches                   40656402                       # Number of branches that fetch encountered
system.cpu1.fetch.CacheLines                 32148347                       # Number of cache lines fetched
system.cpu1.fetch.Cycles                    454920329                       # Number of cycles fetch has run and was not squashing or blocked
system.cpu1.fetch.IcacheSquashes               760947                       # Number of outstanding Icache misses that were squashed
system.cpu1.fetch.Insts                     186926823                       # Number of instructions fetch has processed
system.cpu1.fetch.MiscStallCycles                   4                       # Number of cycles fetch has spent waiting on interrupts, or bad addresses, or out of MSHRs
system.cpu1.fetch.PendingTrapStallCycles           14                       # Number of stall cycles due to pending traps
system.cpu1.fetch.SquashCycles                5600078                       # Number of cycles fetch has spent squashing
system.cpu1.fetch.branchRate                 0.080061                       # Number of branch fetches per cycle
system.cpu1.fetch.icacheStallCycles          43690346                       # Number of cycles fetch is stalled on an Icache miss
system.cpu1.fetch.predictedBranches          26120272                       # Number of branches that fetch has predicted taken
system.cpu1.fetch.rate                       0.368097                       # Number of inst fetches per cycle
system.cpu1.fetch.rateDist::samples         501410732                       # Number of instructions fetched each cycle (Total)
system.cpu1.fetch.rateDist::mean             0.376992                       # Number of instructions fetched each cycle (Total)
system.cpu1.fetch.rateDist::stdev            0.797332                       # Number of instructions fetched each cycle (Total)
system.cpu1.fetch.rateDist::underflows              0      0.00%      0.00% # Number of instructions fetched each cycle (Total)
system.cpu1.fetch.rateDist::0               376645292     75.12%     75.12% # Number of instructions fetched each cycle (Total)
system.cpu1.fetch.rateDist::1                84071408     16.77%     91.88% # Number of instructions fetched each cycle (Total)
system.cpu1.fetch.rateDist::2                25625279      5.11%     96.99% # Number of instructions fetched each cycle (Total)
system.cpu1.fetch.rateDist::3                10042980      2.00%     99.00% # Number of instructions fetched each cycle (Total)
system.cpu1.fetch.rateDist::4                 2248131      0.45%     99.45% # Number of instructions fetched each cycle (Total)
system.cpu1.fetch.rateDist::5                 2082340      0.42%     99.86% # Number of instructions fetched each cycle (Total)
system.cpu1.fetch.rateDist::6                  694869      0.14%    100.00% # Number of instructions fetched each cycle (Total)
system.cpu1.fetch.rateDist::7                     193      0.00%    100.00% # Number of instructions fetched each cycle (Total)
system.cpu1.fetch.rateDist::8                     240      0.00%    100.00% # Number of instructions fetched each cycle (Total)
system.cpu1.fetch.rateDist::overflows               0      0.00%    100.00% # Number of instructions fetched each cycle (Total)
system.cpu1.fetch.rateDist::min_value               0                       # Number of instructions fetched each cycle (Total)
system.cpu1.fetch.rateDist::max_value               8                       # Number of instructions fetched each cycle (Total)
system.cpu1.fetch.rateDist::total           501410732                       # Number of instructions fetched each cycle (Total)
system.cpu1.fp_regfile_reads                       12                       # number of floating regfile reads
system.cpu1.idleCycles                        6408860                       # Total number of cycles that the CPU has spent unscheduled due to idling
system.cpu1.iew.branchMispredicts             1964157                       # Number of branch mispredicts detected at execute
system.cpu1.iew.exec_branches                36543925                       # Number of branches executed
system.cpu1.iew.exec_nop                            0                       # number of nop insts executed
system.cpu1.iew.exec_rate                    0.335825                       # Inst execution rate
system.cpu1.iew.exec_refs                    60665891                       # number of memory reference insts executed
system.cpu1.iew.exec_stores                  18407137                       # Number of stores executed
system.cpu1.iew.exec_swp                            0                       # number of swp insts executed
system.cpu1.iew.iewBlockCycles              299593723                       # Number of cycles IEW is blocking
system.cpu1.iew.iewDispLoadInsts             42934662                       # Number of dispatched load instructions
system.cpu1.iew.iewDispNonSpecInsts           2100708                       # Number of dispatched non-speculative instructions
system.cpu1.iew.iewDispSquashedInsts          1793162                       # Number of squashed instructions skipped by dispatch
system.cpu1.iew.iewDispStoreInsts            18853764                       # Number of dispatched store instructions
system.cpu1.iew.iewDispatchedInsts          174884353                       # Number of instructions dispatched to IQ
system.cpu1.iew.iewExecLoadInsts             42258754                       # Number of load instructions executed
system.cpu1.iew.iewExecSquashedInsts          1615941                       # Number of squashed instructions skipped in execute
system.cpu1.iew.iewExecutedInsts            170538519                       # Number of executed instructions
system.cpu1.iew.iewIQFullEvents               1109855                       # Number of times the IQ has become full, causing a stall
system.cpu1.iew.iewIdleCycles                       0                       # Number of cycles IEW is idle
system.cpu1.iew.iewLSQFullEvents              6488157                       # Number of times the LSQ has become full, causing a stall
system.cpu1.iew.iewSquashCycles               1895653                       # Number of cycles IEW is squashing
system.cpu1.iew.iewUnblockCycles             10361976                       # Number of cycles IEW is unblocking
system.cpu1.iew.lsq.thread0.blockedLoads            0                       # Number of blocked loads due to partial load-store forwarding
system.cpu1.iew.lsq.thread0.cacheBlocked        96943                       # Number of times an access to memory failed due to the cache being blocked
system.cpu1.iew.lsq.thread0.forwLoads         1053338                       # Number of loads that had data forwarded from stores
system.cpu1.iew.lsq.thread0.ignoredResponses        22065                       # Number of memory responses ignored because the instruction is squashed
system.cpu1.iew.lsq.thread0.invAddrLoads            0                       # Number of loads ignored due to an invalid address
system.cpu1.iew.lsq.thread0.invAddrSwpfs            0                       # Number of software prefetches ignored due to an invalid address
system.cpu1.iew.lsq.thread0.memOrderViolation         1567                       # Number of memory ordering violations
system.cpu1.iew.lsq.thread0.rescheduledLoads         3439                       # Number of loads that were rescheduled
system.cpu1.iew.lsq.thread0.squashedLoads      4029587                       # Number of loads squashed
system.cpu1.iew.lsq.thread0.squashedStores       952359                       # Number of stores squashed
system.cpu1.iew.memOrderViolationEvents          1567                       # Number of memory order violations
system.cpu1.iew.predictedNotTakenIncorrect       400711                       # Number of branches that were predicted not taken incorrectly
system.cpu1.iew.predictedTakenIncorrect       1563446                       # Number of branches that were predicted taken incorrectly
system.cpu1.iew.wb_consumers                 91385827                       # num instructions consuming a value
system.cpu1.iew.wb_count                    169352340                       # cumulative count of insts written-back
system.cpu1.iew.wb_fanout                    0.827979                       # average fanout of values written-back
system.cpu1.iew.wb_producers                 75665519                       # num instructions producing a value
system.cpu1.iew.wb_rate                      0.333489                       # insts written-back per cycle
system.cpu1.iew.wb_sent                     169402162                       # cumulative count of insts sent to commit
system.cpu1.int_regfile_reads               215644455                       # number of integer regfile reads
system.cpu1.int_regfile_writes              114219129                       # number of integer regfile writes
system.cpu1.ipc                              0.311305                       # IPC: Instructions Per Cycle
system.cpu1.ipc_total                        0.311305                       # IPC: Total IPC of All Threads
system.cpu1.iq.FU_type_0::No_OpClass          4200249      2.44%      2.44% # Type of FU issued
system.cpu1.iq.FU_type_0::IntAlu            105757491     61.43%     63.87% # Type of FU issued
system.cpu1.iq.FU_type_0::IntMult              265396      0.15%     64.03% # Type of FU issued
system.cpu1.iq.FU_type_0::IntDiv               527008      0.31%     64.33% # Type of FU issued
system.cpu1.iq.FU_type_0::FloatAdd                  0      0.00%     64.33% # Type of FU issued
system.cpu1.iq.FU_type_0::FloatCmp                  0      0.00%     64.33% # Type of FU issued
system.cpu1.iq.FU_type_0::FloatCvt                  0      0.00%     64.33% # Type of FU issued
system.cpu1.iq.FU_type_0::FloatMult                 0      0.00%     64.33% # Type of FU issued
system.cpu1.iq.FU_type_0::FloatMultAcc              0      0.00%     64.33% # Type of FU issued
system.cpu1.iq.FU_type_0::FloatDiv                  0      0.00%     64.33% # Type of FU issued
system.cpu1.iq.FU_type_0::FloatMisc                 0      0.00%     64.33% # Type of FU issued
system.cpu1.iq.FU_type_0::FloatSqrt                 0      0.00%     64.33% # Type of FU issued
system.cpu1.iq.FU_type_0::SimdAdd                   0      0.00%     64.33% # Type of FU issued
system.cpu1.iq.FU_type_0::SimdAddAcc                0      0.00%     64.33% # Type of FU issued
system.cpu1.iq.FU_type_0::SimdAlu                   0      0.00%     64.33% # Type of FU issued
system.cpu1.iq.FU_type_0::SimdCmp                   0      0.00%     64.33% # Type of FU issued
system.cpu1.iq.FU_type_0::SimdCvt                   0      0.00%     64.33% # Type of FU issued
system.cpu1.iq.FU_type_0::SimdMisc                  0      0.00%     64.33% # Type of FU issued
system.cpu1.iq.FU_type_0::SimdMult                  0      0.00%     64.33% # Type of FU issued
system.cpu1.iq.FU_type_0::SimdMultAcc               0      0.00%     64.33% # Type of FU issued
system.cpu1.iq.FU_type_0::SimdShift                 0      0.00%     64.33% # Type of FU issued
system.cpu1.iq.FU_type_0::SimdShiftAcc              0      0.00%     64.33% # Type of FU issued
system.cpu1.iq.FU_type_0::SimdDiv                   0      0.00%     64.33% # Type of FU issued
system.cpu1.iq.FU_type_0::SimdSqrt                  0      0.00%     64.33% # Type of FU issued
system.cpu1.iq.FU_type_0::SimdFloatAdd              0      0.00%     64.33% # Type of FU issued
system.cpu1.iq.FU_type_0::SimdFloatAlu              0      0.00%     64.33% # Type of FU issued
system.cpu1.iq.FU_type_0::SimdFloatCmp              0      0.00%     64.33% # Type of FU issued
system.cpu1.iq.FU_type_0::SimdFloatCvt              0      0.00%     64.33% # Type of FU issued
system.cpu1.iq.FU_type_0::SimdFloatDiv              0      0.00%     64.33% # Type of FU issued
system.cpu1.iq.FU_type_0::SimdFloatMisc             0      0.00%     64.33% # Type of FU issued
system.cpu1.iq.FU_type_0::SimdFloatMult             0      0.00%     64.33% # Type of FU issued
system.cpu1.iq.FU_type_0::SimdFloatMultAcc            0      0.00%     64.33% # Type of FU issued
system.cpu1.iq.FU_type_0::SimdFloatSqrt             0      0.00%     64.33% # Type of FU issued
system.cpu1.iq.FU_type_0::SimdReduceAdd             0      0.00%     64.33% # Type of FU issued
system.cpu1.iq.FU_type_0::SimdReduceAlu             0      0.00%     64.33% # Type of FU issued
system.cpu1.iq.FU_type_0::SimdReduceCmp             0      0.00%     64.33% # Type of FU issued
system.cpu1.iq.FU_type_0::SimdFloatReduceAdd            0      0.00%     64.33% # Type of FU issued
system.cpu1.iq.FU_type_0::SimdFloatReduceCmp            0      0.00%     64.33% # Type of FU issued
system.cpu1.iq.FU_type_0::SimdAes                   0      0.00%     64.33% # Type of FU issued
system.cpu1.iq.FU_type_0::SimdAesMix                0      0.00%     64.33% # Type of FU issued
system.cpu1.iq.FU_type_0::SimdSha1Hash              0      0.00%     64.33% # Type of FU issued
system.cpu1.iq.FU_type_0::SimdSha1Hash2             0      0.00%     64.33% # Type of FU issued
system.cpu1.iq.FU_type_0::SimdSha256Hash            0      0.00%     64.33% # Type of FU issued
system.cpu1.iq.FU_type_0::SimdSha256Hash2            0      0.00%     64.33% # Type of FU issued
system.cpu1.iq.FU_type_0::SimdShaSigma2             0      0.00%     64.33% # Type of FU issued
system.cpu1.iq.FU_type_0::SimdShaSigma3             0      0.00%     64.33% # Type of FU issued
system.cpu1.iq.FU_type_0::SimdPredAlu               0      0.00%     64.33% # Type of FU issued
system.cpu1.iq.FU_type_0::MemRead            45013562     26.15%     90.48% # Type of FU issued
system.cpu1.iq.FU_type_0::MemWrite           16390742      9.52%    100.00% # Type of FU issued
system.cpu1.iq.FU_type_0::FloatMemRead              0      0.00%    100.00% # Type of FU issued
system.cpu1.iq.FU_type_0::FloatMemWrite            12      0.00%    100.00% # Type of FU issued
system.cpu1.iq.FU_type_0::IprAccess                 0      0.00%    100.00% # Type of FU issued
system.cpu1.iq.FU_type_0::InstPrefetch              0      0.00%    100.00% # Type of FU issued
system.cpu1.iq.FU_type_0::total             172154460                       # Type of FU issued
system.cpu1.iq.fp_alu_accesses                     16                       # Number of floating point alu accesses
system.cpu1.iq.fp_inst_queue_reads                 28                       # Number of floating instruction queue reads
system.cpu1.iq.fp_inst_queue_wakeup_accesses           12                       # Number of floating instruction queue wakeup accesses
system.cpu1.iq.fp_inst_queue_writes                12                       # Number of floating instruction queue writes
system.cpu1.iq.fu_busy_cnt                    3814839                       # FU busy when requested
system.cpu1.iq.fu_busy_rate                  0.022159                       # FU busy rate (busy events/executed inst)
system.cpu1.iq.fu_full::No_OpClass                  0      0.00%      0.00% # attempts to use FU when none available
system.cpu1.iq.fu_full::IntAlu                 586744     15.38%     15.38% # attempts to use FU when none available
system.cpu1.iq.fu_full::IntMult                  1000      0.03%     15.41% # attempts to use FU when none available
system.cpu1.iq.fu_full::IntDiv                 236137      6.19%     21.60% # attempts to use FU when none available
system.cpu1.iq.fu_full::FloatAdd                    0      0.00%     21.60% # attempts to use FU when none available
system.cpu1.iq.fu_full::FloatCmp                    0      0.00%     21.60% # attempts to use FU when none available
system.cpu1.iq.fu_full::FloatCvt                    0      0.00%     21.60% # attempts to use FU when none available
system.cpu1.iq.fu_full::FloatMult                   0      0.00%     21.60% # attempts to use FU when none available
system.cpu1.iq.fu_full::FloatMultAcc                0      0.00%     21.60% # attempts to use FU when none available
system.cpu1.iq.fu_full::FloatDiv                    0      0.00%     21.60% # attempts to use FU when none available
system.cpu1.iq.fu_full::FloatMisc                   0      0.00%     21.60% # attempts to use FU when none available
system.cpu1.iq.fu_full::FloatSqrt                   0      0.00%     21.60% # attempts to use FU when none available
system.cpu1.iq.fu_full::SimdAdd                     0      0.00%     21.60% # attempts to use FU when none available
system.cpu1.iq.fu_full::SimdAddAcc                  0      0.00%     21.60% # attempts to use FU when none available
system.cpu1.iq.fu_full::SimdAlu                     0      0.00%     21.60% # attempts to use FU when none available
system.cpu1.iq.fu_full::SimdCmp                     0      0.00%     21.60% # attempts to use FU when none available
system.cpu1.iq.fu_full::SimdCvt                     0      0.00%     21.60% # attempts to use FU when none available
system.cpu1.iq.fu_full::SimdMisc                    0      0.00%     21.60% # attempts to use FU when none available
system.cpu1.iq.fu_full::SimdMult                    0      0.00%     21.60% # attempts to use FU when none available
system.cpu1.iq.fu_full::SimdMultAcc                 0      0.00%     21.60% # attempts to use FU when none available
system.cpu1.iq.fu_full::SimdShift                   0      0.00%     21.60% # attempts to use FU when none available
system.cpu1.iq.fu_full::SimdShiftAcc                0      0.00%     21.60% # attempts to use FU when none available
system.cpu1.iq.fu_full::SimdDiv                     0      0.00%     21.60% # attempts to use FU when none available
system.cpu1.iq.fu_full::SimdSqrt                    0      0.00%     21.60% # attempts to use FU when none available
system.cpu1.iq.fu_full::SimdFloatAdd                0      0.00%     21.60% # attempts to use FU when none available
system.cpu1.iq.fu_full::SimdFloatAlu                0      0.00%     21.60% # attempts to use FU when none available
system.cpu1.iq.fu_full::SimdFloatCmp                0      0.00%     21.60% # attempts to use FU when none available
system.cpu1.iq.fu_full::SimdFloatCvt                0      0.00%     21.60% # attempts to use FU when none available
system.cpu1.iq.fu_full::SimdFloatDiv                0      0.00%     21.60% # attempts to use FU when none available
system.cpu1.iq.fu_full::SimdFloatMisc               0      0.00%     21.60% # attempts to use FU when none available
system.cpu1.iq.fu_full::SimdFloatMult               0      0.00%     21.60% # attempts to use FU when none available
system.cpu1.iq.fu_full::SimdFloatMultAcc            0      0.00%     21.60% # attempts to use FU when none available
system.cpu1.iq.fu_full::SimdFloatSqrt               0      0.00%     21.60% # attempts to use FU when none available
system.cpu1.iq.fu_full::SimdReduceAdd               0      0.00%     21.60% # attempts to use FU when none available
system.cpu1.iq.fu_full::SimdReduceAlu               0      0.00%     21.60% # attempts to use FU when none available
system.cpu1.iq.fu_full::SimdReduceCmp               0      0.00%     21.60% # attempts to use FU when none available
system.cpu1.iq.fu_full::SimdFloatReduceAdd            0      0.00%     21.60% # attempts to use FU when none available
system.cpu1.iq.fu_full::SimdFloatReduceCmp            0      0.00%     21.60% # attempts to use FU when none available
system.cpu1.iq.fu_full::SimdAes                     0      0.00%     21.60% # attempts to use FU when none available
system.cpu1.iq.fu_full::SimdAesMix                  0      0.00%     21.60% # attempts to use FU when none available
system.cpu1.iq.fu_full::SimdSha1Hash                0      0.00%     21.60% # attempts to use FU when none available
system.cpu1.iq.fu_full::SimdSha1Hash2               0      0.00%     21.60% # attempts to use FU when none available
system.cpu1.iq.fu_full::SimdSha256Hash              0      0.00%     21.60% # attempts to use FU when none available
system.cpu1.iq.fu_full::SimdSha256Hash2             0      0.00%     21.60% # attempts to use FU when none available
system.cpu1.iq.fu_full::SimdShaSigma2               0      0.00%     21.60% # attempts to use FU when none available
system.cpu1.iq.fu_full::SimdShaSigma3               0      0.00%     21.60% # attempts to use FU when none available
system.cpu1.iq.fu_full::SimdPredAlu                 0      0.00%     21.60% # attempts to use FU when none available
system.cpu1.iq.fu_full::MemRead               2437359     63.89%     85.49% # attempts to use FU when none available
[...]
system.cpu1.dcache.WriteReq_misses::.cpu1.data      2501850                       # number of WriteReq misses
system.cpu1.dcache.WriteReq_misses::total      2501850                       # number of WriteReq misses
system.cpu1.dcache.WriteReq_miss_latency::.cpu1.data 170245551470                       # number of WriteReq miss cycles
system.cpu1.dcache.WriteReq_miss_latency::total 170245551470                       # number of WriteReq miss cycles
system.cpu1.dcache.WriteReq_accesses::.cpu1.data      5877804                       # number of WriteReq accesses(hits+misses)
system.cpu1.dcache.WriteReq_accesses::total      5877804                       # number of WriteReq accesses(hits+misses)
system.cpu1.dcache.WriteReq_miss_rate::.cpu1.data     0.425644                       # miss rate for WriteReq accesses
system.cpu1.dcache.WriteReq_miss_rate::total     0.425644                       # miss rate for WriteReq accesses
system.cpu1.dcache.WriteReq_avg_miss_latency::.cpu1.data 68047.865168                       # average WriteReq miss latency
system.cpu1.dcache.WriteReq_avg_miss_latency::total 68047.865168                       # average WriteReq miss latency
system.cpu1.dcache.WriteReq_mshr_hits::.cpu1.data      2056784                       # number of WriteReq MSHR hits
system.cpu1.dcache.WriteReq_mshr_hits::total      2056784                       # number of WriteReq MSHR hits
system.cpu1.dcache.WriteReq_mshr_misses::.cpu1.data       445066                       # number of WriteReq MSHR misses
system.cpu1.dcache.WriteReq_mshr_misses::total       445066                       # number of WriteReq MSHR misses
system.cpu1.dcache.WriteReq_mshr_miss_latency::.cpu1.data  30844917412                       # number of WriteReq MSHR miss cycles
system.cpu1.dcache.WriteReq_mshr_miss_latency::total  30844917412                       # number of WriteReq MSHR miss cycles
system.cpu1.dcache.WriteReq_mshr_miss_rate::.cpu1.data     0.075720                       # mshr miss rate for WriteReq accesses
system.cpu1.dcache.WriteReq_mshr_miss_rate::total     0.075720                       # mshr miss rate for WriteReq accesses
system.cpu1.dcache.WriteReq_avg_mshr_miss_latency::.cpu1.data 69304.142334                       # average WriteReq mshr miss latency
system.cpu1.dcache.WriteReq_avg_mshr_miss_latency::total 69304.142334                       # average WriteReq mshr miss latency
system.cpu1.dcache.LoadLockedReq_hits::.cpu1.data        78655                       # number of LoadLockedReq hits
system.cpu1.dcache.LoadLockedReq_hits::total        78655                       # number of LoadLockedReq hits
system.cpu1.dcache.LoadLockedReq_misses::.cpu1.data        24935                       # number of LoadLockedReq misses
system.cpu1.dcache.LoadLockedReq_misses::total        24935                       # number of LoadLockedReq misses
system.cpu1.dcache.LoadLockedReq_miss_latency::.cpu1.data    677066000                       # number of LoadLockedReq miss cycles
system.cpu1.dcache.LoadLockedReq_miss_latency::total    677066000                       # number of LoadLockedReq miss cycles
system.cpu1.dcache.LoadLockedReq_accesses::.cpu1.data       103590                       # number of LoadLockedReq accesses(hits+misses)
system.cpu1.dcache.LoadLockedReq_accesses::total       103590                       # number of LoadLockedReq accesses(hits+misses)
system.cpu1.dcache.LoadLockedReq_miss_rate::.cpu1.data     0.240709                       # miss rate for LoadLockedReq accesses
system.cpu1.dcache.LoadLockedReq_miss_rate::total     0.240709                       # miss rate for LoadLockedReq accesses
system.cpu1.dcache.LoadLockedReq_avg_miss_latency::.cpu1.data 27153.238420                       # average LoadLockedReq miss latency
system.cpu1.dcache.LoadLockedReq_avg_miss_latency::total 27153.238420                       # average LoadLockedReq miss latency
system.cpu1.dcache.LoadLockedReq_mshr_hits::.cpu1.data        22881                       # number of LoadLockedReq MSHR hits
system.cpu1.dcache.LoadLockedReq_mshr_hits::total        22881                       # number of LoadLockedReq MSHR hits
system.cpu1.dcache.LoadLockedReq_mshr_misses::.cpu1.data         2054                       # number of LoadLockedReq MSHR misses
system.cpu1.dcache.LoadLockedReq_mshr_misses::total         2054                       # number of LoadLockedReq MSHR misses
system.cpu1.dcache.LoadLockedReq_mshr_miss_latency::.cpu1.data     31725500                       # number of LoadLockedReq MSHR miss cycles
system.cpu1.dcache.LoadLockedReq_mshr_miss_latency::total     31725500                       # number of LoadLockedReq MSHR miss cycles
system.cpu1.dcache.LoadLockedReq_mshr_miss_rate::.cpu1.data     0.019828                       # mshr miss rate for LoadLockedReq accesses
system.cpu1.dcache.LoadLockedReq_mshr_miss_rate::total     0.019828                       # mshr miss rate for LoadLockedReq accesses
system.cpu1.dcache.LoadLockedReq_avg_mshr_miss_latency::.cpu1.data 15445.715677                       # average LoadLockedReq mshr miss latency
system.cpu1.dcache.LoadLockedReq_avg_mshr_miss_latency::total 15445.715677                       # average LoadLockedReq mshr miss latency
system.cpu1.dcache.StoreCondReq_hits::.cpu1.data        59274                       # number of StoreCondReq hits
system.cpu1.dcache.StoreCondReq_hits::total        59274                       # number of StoreCondReq hits
system.cpu1.dcache.StoreCondReq_misses::.cpu1.data        24274                       # number of StoreCondReq misses
system.cpu1.dcache.StoreCondReq_misses::total        24274                       # number of StoreCondReq misses
system.cpu1.dcache.StoreCondReq_miss_latency::.cpu1.data    180952000                       # number of StoreCondReq miss cycles
system.cpu1.dcache.StoreCondReq_miss_latency::total    180952000                       # number of StoreCondReq miss cycles
system.cpu1.dcache.StoreCondReq_accesses::.cpu1.data        83548                       # number of StoreCondReq accesses(hits+misses)
system.cpu1.dcache.StoreCondReq_accesses::total        83548                       # number of StoreCondReq accesses(hits+misses)
system.cpu1.dcache.StoreCondReq_miss_rate::.cpu1.data     0.290540                       # miss rate for StoreCondReq accesses
system.cpu1.dcache.StoreCondReq_miss_rate::total     0.290540                       # miss rate for StoreCondReq accesses
system.cpu1.dcache.StoreCondReq_avg_miss_latency::.cpu1.data  7454.560435                       # average StoreCondReq miss latency
system.cpu1.dcache.StoreCondReq_avg_miss_latency::total  7454.560435                       # average StoreCondReq miss latency
system.cpu1.dcache.StoreCondReq_mshr_misses::.cpu1.data        24274                       # number of StoreCondReq MSHR misses
system.cpu1.dcache.StoreCondReq_mshr_misses::total        24274                       # number of StoreCondReq MSHR misses
system.cpu1.dcache.StoreCondReq_mshr_miss_latency::.cpu1.data    156759000                       # number of StoreCondReq MSHR miss cycles
system.cpu1.dcache.StoreCondReq_mshr_miss_latency::total    156759000                       # number of StoreCondReq MSHR miss cycles
system.cpu1.dcache.StoreCondReq_mshr_miss_rate::.cpu1.data     0.290540                       # mshr miss rate for StoreCondReq accesses
system.cpu1.dcache.StoreCondReq_mshr_miss_rate::total     0.290540                       # mshr miss rate for StoreCondReq accesses
system.cpu1.dcache.StoreCondReq_avg_mshr_miss_latency::.cpu1.data  6457.897339                       # average StoreCondReq mshr miss latency
system.cpu1.dcache.StoreCondReq_avg_mshr_miss_latency::total  6457.897339                       # average StoreCondReq mshr miss latency
system.cpu1.dcache.StoreCondFailReq_miss_latency::.cpu1.data      1265500                       # number of StoreCondFailReq miss cycles
system.cpu1.dcache.StoreCondFailReq_miss_latency::total      1265500                       # number of StoreCondFailReq miss cycles
system.cpu1.dcache.StoreCondFailReq_avg_miss_latency::.cpu1.data          inf                       # average StoreCondFailReq miss latency
system.cpu1.dcache.StoreCondFailReq_avg_miss_latency::total          inf                       # average StoreCondFailReq miss latency
system.cpu1.dcache.StoreCondFailReq_mshr_miss_latency::.cpu1.data      1184500                       # number of StoreCondFailReq MSHR miss cycles
system.cpu1.dcache.StoreCondFailReq_mshr_miss_latency::total      1184500                       # number of StoreCondFailReq MSHR miss cycles
system.cpu1.dcache.StoreCondFailReq_avg_mshr_miss_latency::.cpu1.data          inf                       # average StoreCondFailReq mshr miss latency
system.cpu1.dcache.StoreCondFailReq_avg_mshr_miss_latency::total          inf                       # average StoreCondFailReq mshr miss latency
system.cpu1.dcache.SwapReq_hits::.cpu1.data        47407                       # number of SwapReq hits
system.cpu1.dcache.SwapReq_hits::total          47407                       # number of SwapReq hits
system.cpu1.dcache.SwapReq_misses::.cpu1.data        26591                       # number of SwapReq misses
system.cpu1.dcache.SwapReq_misses::total        26591                       # number of SwapReq misses
system.cpu1.dcache.SwapReq_miss_latency::.cpu1.data    127849500                       # number of SwapReq miss cycles
system.cpu1.dcache.SwapReq_miss_latency::total    127849500                       # number of SwapReq miss cycles
system.cpu1.dcache.SwapReq_accesses::.cpu1.data        73998                       # number of SwapReq accesses(hits+misses)
system.cpu1.dcache.SwapReq_accesses::total        73998                       # number of SwapReq accesses(hits+misses)
system.cpu1.dcache.SwapReq_miss_rate::.cpu1.data     0.359348                       # miss rate for SwapReq accesses
system.cpu1.dcache.SwapReq_miss_rate::total     0.359348                       # miss rate for SwapReq accesses
system.cpu1.dcache.SwapReq_avg_miss_latency::.cpu1.data  4807.998947                       # average SwapReq miss latency
system.cpu1.dcache.SwapReq_avg_miss_latency::total  4807.998947                       # average SwapReq miss latency
system.cpu1.dcache.SwapReq_mshr_hits::.cpu1.data            2                       # number of SwapReq MSHR hits
system.cpu1.dcache.SwapReq_mshr_hits::total            2                       # number of SwapReq MSHR hits
system.cpu1.dcache.SwapReq_mshr_misses::.cpu1.data        26589                       # number of SwapReq MSHR misses
system.cpu1.dcache.SwapReq_mshr_misses::total        26589                       # number of SwapReq MSHR misses
system.cpu1.dcache.SwapReq_mshr_miss_latency::.cpu1.data    101234500                       # number of SwapReq MSHR miss cycles
system.cpu1.dcache.SwapReq_mshr_miss_latency::total    101234500                       # number of SwapReq MSHR miss cycles
system.cpu1.dcache.SwapReq_mshr_miss_rate::.cpu1.data     0.359321                       # mshr miss rate for SwapReq accesses
system.cpu1.dcache.SwapReq_mshr_miss_rate::total     0.359321                       # mshr miss rate for SwapReq accesses
system.cpu1.dcache.SwapReq_avg_mshr_miss_latency::.cpu1.data  3807.382752                       # average SwapReq mshr miss latency
system.cpu1.dcache.SwapReq_avg_mshr_miss_latency::total  3807.382752                       # average SwapReq mshr miss latency
system.cpu1.dcache.tags.pwrStateResidencyTicks::UNDEFINED 184501067500                       # Cumulative time (in ticks) in various power states
system.cpu1.dcache.tags.tagsinuse           31.506590                       # Cycle average of tags in use
system.cpu1.dcache.tags.total_refs            9813053                       # Total number of references to valid blocks.
system.cpu1.dcache.tags.sampled_refs          1081831                       # Sample count of references to valid blocks.
system.cpu1.dcache.tags.avg_refs             9.070782                       # Average number of references to valid blocks.
system.cpu1.dcache.tags.warmup_cycle                0                       # Cycle when the warmup percentage was hit.
system.cpu1.dcache.tags.occ_blocks::.cpu1.data    31.506590                       # Average occupied blocks per requestor
system.cpu1.dcache.tags.occ_percent::.cpu1.data     0.984581                       # Average percentage of cache occupancy
system.cpu1.dcache.tags.occ_percent::total     0.984581                       # Average percentage of cache occupancy
system.cpu1.dcache.tags.occ_task_id_blocks::1024           31                       # Occupied blocks per task id
system.cpu1.dcache.tags.age_task_id_blocks_1024::1           31                       # Occupied blocks per task id
system.cpu1.dcache.tags.occ_task_id_percent::1024     0.968750                       # Percentage of cache occupancy per task id
system.cpu1.dcache.tags.tag_accesses         26107680                       # Number of tag accesses
system.cpu1.dcache.tags.data_accesses        26107680                       # Number of data accesses
system.cpu_clk_domain.clock                       500                       # Clock period in ticks
system.tol2bus.pwrStateResidencyTicks::UNDEFINED 184501067500                       # Cumulative time (in ticks) in various power states
system.tol2bus.trans_dist::ReadResp           5097564                       # Transaction distribution
system.tol2bus.trans_dist::WritebackDirty      2316375                       # Transaction distribution
system.tol2bus.trans_dist::WritebackClean      4512346                       # Transaction distribution
system.tol2bus.trans_dist::CleanEvict        10424675                       # Transaction distribution
system.tol2bus.trans_dist::HardPFReq          8152503                       # Transaction distribution
system.tol2bus.trans_dist::HardPFResp             427                       # Transaction distribution
system.tol2bus.trans_dist::UpgradeReq          100403                       # Transaction distribution
system.tol2bus.trans_dist::SCUpgradeReq         45058                       # Transaction distribution
system.tol2bus.trans_dist::UpgradeResp         145461                       # Transaction distribution
system.tol2bus.trans_dist::SCUpgradeFailReq          130                       # Transaction distribution
system.tol2bus.trans_dist::UpgradeFailResp          130                       # Transaction distribution
system.tol2bus.trans_dist::ReadExReq           830717                       # Transaction distribution
system.tol2bus.trans_dist::ReadExResp          830719                       # Transaction distribution
system.tol2bus.trans_dist::ReadCleanReq       3378723                       # Transaction distribution
system.tol2bus.trans_dist::ReadSharedReq      1718841                       # Transaction distribution
system.tol2bus.trans_dist::InvalidateReq         4263                       # Transaction distribution
system.tol2bus.trans_dist::InvalidateResp         4263                       # Transaction distribution
system.tol2bus.pkt_count_system.cpu0.icache.mem_side::system.l2.cpu_side      3672200                       # Packet count per connected master and slave (bytes)
system.tol2bus.pkt_count_system.cpu0.dcache.mem_side::system.l2.cpu_side      4339104                       # Packet count per connected master and slave (bytes)
system.tol2bus.pkt_count_system.cpu1.icache.mem_side::system.l2.cpu_side      6463662                       # Packet count per connected master and slave (bytes)
system.tol2bus.pkt_count_system.cpu1.dcache.mem_side::system.l2.cpu_side      3118415                       # Packet count per connected master and slave (bytes)
system.tol2bus.pkt_count::total              17593381                       # Packet count per connected master and slave (bytes)
system.tol2bus.pkt_size_system.cpu0.icache.mem_side::system.l2.cpu_side    156675072                       # Cumulative packet size per connected master and slave (bytes)
system.tol2bus.pkt_size_system.cpu0.dcache.mem_side::system.l2.cpu_side    176771968                       # Cumulative packet size per connected master and slave (bytes)
system.tol2bus.pkt_size_system.cpu1.icache.mem_side::system.l2.cpu_side    275781824                       # Cumulative packet size per connected master and slave (bytes)
system.tol2bus.pkt_size_system.cpu1.dcache.mem_side::system.l2.cpu_side    125671680                       # Cumulative packet size per connected master and slave (bytes)
system.tol2bus.pkt_size::total              734900544                       # Cumulative packet size per connected master and slave (bytes)
system.tol2bus.snoops                        19969644                       # Total snoops (count)
system.tol2bus.snoopTraffic                  81610688                       # Total snoop traffic (bytes)
system.tol2bus.snoop_fanout::samples         25726687                       # Request fanout histogram
system.tol2bus.snoop_fanout::mean            0.230544                       # Request fanout histogram
system.tol2bus.snoop_fanout::stdev           0.456549                       # Request fanout histogram
system.tol2bus.snoop_fanout::underflows             0      0.00%      0.00% # Request fanout histogram
system.tol2bus.snoop_fanout::0               20194871     78.50%     78.50% # Request fanout histogram
system.tol2bus.snoop_fanout::1                5132492     19.95%     98.45% # Request fanout histogram
system.tol2bus.snoop_fanout::2                 399324      1.55%    100.00% # Request fanout histogram
system.tol2bus.snoop_fanout::3                      0      0.00%    100.00% # Request fanout histogram
system.tol2bus.snoop_fanout::4                      0      0.00%    100.00% # Request fanout histogram
system.tol2bus.snoop_fanout::5                      0      0.00%    100.00% # Request fanout histogram
system.tol2bus.snoop_fanout::6                      0      0.00%    100.00% # Request fanout histogram
system.tol2bus.snoop_fanout::7                      0      0.00%    100.00% # Request fanout histogram
system.tol2bus.snoop_fanout::8                      0      0.00%    100.00% # Request fanout histogram
system.tol2bus.snoop_fanout::overflows              0      0.00%    100.00% # Request fanout histogram
system.tol2bus.snoop_fanout::min_value              0                       # Request fanout histogram
system.tol2bus.snoop_fanout::max_value              2                       # Request fanout histogram
system.tol2bus.snoop_fanout::total           25726687                       # Request fanout histogram
system.tol2bus.reqLayer0.occupancy        11675475828                       # Layer occupancy (ticks)
system.tol2bus.reqLayer0.utilization              6.3                       # Layer utilization (%)
system.tol2bus.respLayer1.occupancy        2246990162                       # Layer occupancy (ticks)
system.tol2bus.respLayer1.utilization             1.2                       # Layer utilization (%)
system.tol2bus.respLayer0.occupancy        1839953523                       # Layer occupancy (ticks)
system.tol2bus.respLayer0.utilization             1.0                       # Layer utilization (%)
system.tol2bus.respLayer3.occupancy        1655425419                       # Layer occupancy (ticks)
system.tol2bus.respLayer3.utilization             0.9                       # Layer utilization (%)
system.tol2bus.respLayer2.occupancy        3233424358                       # Layer occupancy (ticks)
system.tol2bus.respLayer2.utilization             1.8                       # Layer utilization (%)
system.tol2bus.snoopLayer0.occupancy           640536                       # Layer occupancy (ticks)
system.tol2bus.snoopLayer0.utilization            0.0                       # Layer utilization (%)

---------- End Simulation Statistics   ----------
