
---------- Begin Simulation Statistics ----------
final_tick                               1281929454000                       # Number of ticks from beginning of simulation (restored from checkpoints and never reset)
host_inst_rate                                  64071                       # Simulator instruction rate (inst/s)
host_mem_usage                                 702160                       # Number of bytes of host memory used
host_op_rate                                    64258                       # Simulator op (including micro ops) rate (op/s)
host_seconds                                 22422.25                       # Real time elapsed on the host
host_tick_rate                               57172196                       # Simulator tick rate (ticks/s)
sim_freq                                 1000000000000                       # Frequency of simulated ticks
sim_insts                                  1436610094                       # Number of instructions simulated
sim_ops                                    1440813869                       # Number of ops (including micro ops) simulated
sim_seconds                                  1.281929                       # Number of seconds simulated
sim_ticks                                1281929454000                       # Number of ticks simulated
system.cpu0.branchPred.BTBCorrect                   0                       # Number of correct BTB predictions (this stat may not work properly.
system.cpu0.branchPred.BTBHitPct            86.858191                       # BTB Hit Percentage
system.cpu0.branchPred.BTBHits              183806342                       # Number of BTB hits
system.cpu0.branchPred.BTBLookups           211616591                       # Number of BTB lookups
system.cpu0.branchPred.RASInCorrect                 0                       # Number of incorrect RAS predictions.
system.cpu0.branchPred.condIncorrect         16755501                       # Number of conditional branches incorrect
system.cpu0.branchPred.condPredicted        286278673                       # Number of conditional branches predicted
system.cpu0.branchPred.indirectHits          21670196                       # Number of indirect target hits.
system.cpu0.branchPred.indirectLookups       23292512                       # Number of indirect predictor lookups.
system.cpu0.branchPred.indirectMisses         1622316                       # Number of indirect misses.
system.cpu0.branchPred.lookups              359809618                       # Number of BP lookups
system.cpu0.branchPred.usedRAS                      0                       # Number of times the RAS was used to get a target.
system.cpu0.branchPredindirectMispredicted      2187844                       # Number of mispredicted indirect branches.
system.cpu0.commit.amos                       2100291                       # Number of atomic instructions committed
system.cpu0.commit.branchMispredicts         10381478                       # The number of times a branch was mispredicted
system.cpu0.commit.branches                 329546269                       # Number of branches committed
system.cpu0.commit.bw_lim_events             35811220                       # number cycles where commit BW limit reached
system.cpu0.commit.commitNonSpecStalls        6309801                       # The number of times commit has been forced to stall to communicate backwards
system.cpu0.commit.commitSquashedInsts      115008846                       # The number of squashed insts skipped by commit
system.cpu0.commit.committedInsts          1316552541                       # Number of instructions committed
system.cpu0.commit.committedOps            1318656130                       # Number of ops (including micro ops) committed
system.cpu0.commit.committed_per_cycle::samples   2373555140                       # Number of insts commited each cycle
system.cpu0.commit.committed_per_cycle::mean     0.555562                       # Number of insts commited each cycle
system.cpu0.commit.committed_per_cycle::stdev     1.304763                       # Number of insts commited each cycle
system.cpu0.commit.committed_per_cycle::underflows            0      0.00%      0.00% # Number of insts commited each cycle
system.cpu0.commit.committed_per_cycle::0   1717916080     72.38%     72.38% # Number of insts commited each cycle
system.cpu0.commit.committed_per_cycle::1    405915684     17.10%     89.48% # Number of insts commited each cycle
system.cpu0.commit.committed_per_cycle::2     84934396      3.58%     93.06% # Number of insts commited each cycle
system.cpu0.commit.committed_per_cycle::3     87841591      3.70%     96.76% # Number of insts commited each cycle
system.cpu0.commit.committed_per_cycle::4     24698407      1.04%     97.80% # Number of insts commited each cycle
system.cpu0.commit.committed_per_cycle::5      8794732      0.37%     98.17% # Number of insts commited each cycle
system.cpu0.commit.committed_per_cycle::6      3411377      0.14%     98.31% # Number of insts commited each cycle
system.cpu0.commit.committed_per_cycle::7      4231653      0.18%     98.49% # Number of insts commited each cycle
system.cpu0.commit.committed_per_cycle::8     35811220      1.51%    100.00% # Number of insts commited each cycle
system.cpu0.commit.committed_per_cycle::overflows            0      0.00%    100.00% # Number of insts commited each cycle
system.cpu0.commit.committed_per_cycle::min_value            0                       # Number of insts commited each cycle
system.cpu0.commit.committed_per_cycle::max_value            8                       # Number of insts commited each cycle
system.cpu0.commit.committed_per_cycle::total   2373555140                       # Number of insts commited each cycle
system.cpu0.commit.fp_insts                        46                       # Number of committed floating point instructions.
system.cpu0.commit.function_calls            25143523                       # Number of function calls committed.
system.cpu0.commit.int_insts               1273924221                       # Number of committed integer instructions.
system.cpu0.commit.loads                    405171500                       # Number of loads committed
system.cpu0.commit.membars                    4203749                       # Number of memory barriers committed
system.cpu0.commit.op_class_0::No_OpClass      4203755      0.32%      0.32% # Class of committed instruction
system.cpu0.commit.op_class_0::IntAlu       742064544     56.27%     56.59% # Class of committed instruction
system.cpu0.commit.op_class_0::IntMult       11831786      0.90%     57.49% # Class of committed instruction
system.cpu0.commit.op_class_0::IntDiv         2099835      0.16%     57.65% # Class of committed instruction
system.cpu0.commit.op_class_0::FloatAdd             0      0.00%     57.65% # Class of committed instruction
system.cpu0.commit.op_class_0::FloatCmp             4      0.00%     57.65% # Class of committed instruction
system.cpu0.commit.op_class_0::FloatCvt            12      0.00%     57.65% # Class of committed instruction
system.cpu0.commit.op_class_0::FloatMult            0      0.00%     57.65% # Class of committed instruction
system.cpu0.commit.op_class_0::FloatMultAcc            0      0.00%     57.65% # Class of committed instruction
system.cpu0.commit.op_class_0::FloatDiv             2      0.00%     57.65% # Class of committed instruction
system.cpu0.commit.op_class_0::FloatMisc            4      0.00%     57.65% # Class of committed instruction
system.cpu0.commit.op_class_0::FloatSqrt            0      0.00%     57.65% # Class of committed instruction
system.cpu0.commit.op_class_0::SimdAdd              0      0.00%     57.65% # Class of committed instruction
system.cpu0.commit.op_class_0::SimdAddAcc            0      0.00%     57.65% # Class of committed instruction
system.cpu0.commit.op_class_0::SimdAlu              0      0.00%     57.65% # Class of committed instruction
system.cpu0.commit.op_class_0::SimdCmp              0      0.00%     57.65% # Class of committed instruction
system.cpu0.commit.op_class_0::SimdCvt              0      0.00%     57.65% # Class of committed instruction
system.cpu0.commit.op_class_0::SimdMisc             0      0.00%     57.65% # Class of committed instruction
system.cpu0.commit.op_class_0::SimdMult             0      0.00%     57.65% # Class of committed instruction
system.cpu0.commit.op_class_0::SimdMultAcc            0      0.00%     57.65% # Class of committed instruction
system.cpu0.commit.op_class_0::SimdShift            0      0.00%     57.65% # Class of committed instruction
system.cpu0.commit.op_class_0::SimdShiftAcc            0      0.00%     57.65% # Class of committed instruction
system.cpu0.commit.op_class_0::SimdDiv              0      0.00%     57.65% # Class of committed instruction
system.cpu0.commit.op_class_0::SimdSqrt             0      0.00%     57.65% # Class of committed instruction
system.cpu0.commit.op_class_0::SimdFloatAdd            0      0.00%     57.65% # Class of committed instruction
system.cpu0.commit.op_class_0::SimdFloatAlu            0      0.00%     57.65% # Class of committed instruction
system.cpu0.commit.op_class_0::SimdFloatCmp            0      0.00%     57.65% # Class of committed instruction
system.cpu0.commit.op_class_0::SimdFloatCvt            0      0.00%     57.65% # Class of committed instruction
system.cpu0.commit.op_class_0::SimdFloatDiv            0      0.00%     57.65% # Class of committed instruction
system.cpu0.commit.op_class_0::SimdFloatMisc            0      0.00%     57.65% # Class of committed instruction
system.cpu0.commit.op_class_0::SimdFloatMult            0      0.00%     57.65% # Class of committed instruction
system.cpu0.commit.op_class_0::SimdFloatMultAcc            0      0.00%     57.65% # Class of committed instruction
system.cpu0.commit.op_class_0::SimdFloatSqrt            0      0.00%     57.65% # Class of committed instruction
system.cpu0.commit.op_class_0::SimdReduceAdd            0      0.00%     57.65% # Class of committed instruction
system.cpu0.commit.op_class_0::SimdReduceAlu            0      0.00%     57.65% # Class of committed instruction
system.cpu0.commit.op_class_0::SimdReduceCmp            0      0.00%     57.65% # Class of committed instruction
system.cpu0.commit.op_class_0::SimdFloatReduceAdd            0      0.00%     57.65% # Class of committed instruction
system.cpu0.commit.op_class_0::SimdFloatReduceCmp            0      0.00%     57.65% # Class of committed instruction
system.cpu0.commit.op_class_0::SimdAes              0      0.00%     57.65% # Class of committed instruction
system.cpu0.commit.op_class_0::SimdAesMix            0      0.00%     57.65% # Class of committed instruction
system.cpu0.commit.op_class_0::SimdSha1Hash            0      0.00%     57.65% # Class of committed instruction
system.cpu0.commit.op_class_0::SimdSha1Hash2            0      0.00%     57.65% # Class of committed instruction
system.cpu0.commit.op_class_0::SimdSha256Hash            0      0.00%     57.65% # Class of committed instruction
system.cpu0.commit.op_class_0::SimdSha256Hash2            0      0.00%     57.65% # Class of committed instruction
system.cpu0.commit.op_class_0::SimdShaSigma2            0      0.00%     57.65% # Class of committed instruction
system.cpu0.commit.op_class_0::SimdShaSigma3            0      0.00%     57.65% # Class of committed instruction
system.cpu0.commit.op_class_0::SimdPredAlu            0      0.00%     57.65% # Class of committed instruction
system.cpu0.commit.op_class_0::MemRead      407271783     30.89%     88.53% # Class of committed instruction
system.cpu0.commit.op_class_0::MemWrite     151184381     11.47%    100.00% # Class of committed instruction
system.cpu0.commit.op_class_0::FloatMemRead            8      0.00%    100.00% # Class of committed instruction
system.cpu0.commit.op_class_0::FloatMemWrite           16      0.00%    100.00% # Class of committed instruction
system.cpu0.commit.op_class_0::IprAccess            0      0.00%    100.00% # Class of committed instruction
system.cpu0.commit.op_class_0::InstPrefetch            0      0.00%    100.00% # Class of committed instruction
system.cpu0.commit.op_class_0::total       1318656130                       # Class of committed instruction
system.cpu0.commit.refs                     558456188                       # Number of memory references committed
system.cpu0.commit.swp_count                        0                       # Number of s/w prefetches committed
system.cpu0.commit.vec_insts                        0                       # Number of committed Vector instructions.
system.cpu0.committedInsts                 1316552541                       # Number of Instructions Simulated
system.cpu0.committedOps                   1318656130                       # Number of Ops (including micro ops) Simulated
system.cpu0.cpi                              1.944201                       # CPI: Cycles Per Instruction
system.cpu0.cpi_total                        1.944201                       # CPI: Total CPI of All Threads
system.cpu0.decode.BlockedCycles            412282673                       # Number of cycles decode is blocked
system.cpu0.decode.BranchMispred              6427221                       # Number of times decode detected a branch misprediction
system.cpu0.decode.BranchResolved           181235847                       # Number of times decode resolved a branch
system.cpu0.decode.DecodedInsts            1465118397                       # Number of instructions handled by decode
system.cpu0.decode.IdleCycles               960751924                       # Number of cycles decode is idle
system.cpu0.decode.RunCycles               1004582078                       # Number of cycles decode is running
system.cpu0.decode.SquashCycles              10392958                       # Number of cycles decode is squashing
system.cpu0.decode.SquashedInsts              9685548                       # Number of squashed instructions handled by decode
system.cpu0.decode.UnblockCycles              6638432                       # Number of cycles decode is unblocking
system.cpu0.dtb.accesses                            0                       # DTB accesses
system.cpu0.dtb.hits                                0                       # DTB hits
system.cpu0.dtb.misses                              0                       # DTB misses
system.cpu0.dtb.read_accesses                       0                       # DTB read accesses
system.cpu0.dtb.read_hits                           0                       # DTB read hits
system.cpu0.dtb.read_misses                         0                       # DTB read misses
system.cpu0.dtb.write_accesses                      0                       # DTB write accesses
system.cpu0.dtb.write_hits                          0                       # DTB write hits
system.cpu0.dtb.write_misses                        0                       # DTB write misses
system.cpu0.fetch.Branches                  359809618                       # Number of branches that fetch encountered
system.cpu0.fetch.CacheLines                261533430                       # Number of cache lines fetched
system.cpu0.fetch.Cycles                   1425956332                       # Number of cycles fetch has run and was not squashing or blocked
system.cpu0.fetch.IcacheSquashes              5591436                       # Number of outstanding Icache misses that were squashed
system.cpu0.fetch.IcacheWaitRetryStallCycles          259                       # Number of stall cycles due to full MSHR
system.cpu0.fetch.Insts                    1504326171                       # Number of instructions fetch has processed
system.cpu0.fetch.MiscStallCycles                  44                       # Number of cycles fetch has spent waiting on interrupts, or bad addresses, or out of MSHRs
system.cpu0.fetch.PendingTrapStallCycles          126                       # Number of stall cycles due to pending traps
system.cpu0.fetch.SquashCycles               33534002                       # Number of cycles fetch has spent squashing
system.cpu0.fetch.branchRate                 0.140570                       # Number of branch fetches per cycle
system.cpu0.fetch.icacheStallCycles         951924303                       # Number of cycles fetch is stalled on an Icache miss
system.cpu0.fetch.predictedBranches         205476538                       # Number of branches that fetch has predicted taken
system.cpu0.fetch.rate                       0.587710                       # Number of inst fetches per cycle
system.cpu0.fetch.rateDist::samples        2394648065                       # Number of instructions fetched each cycle (Total)
system.cpu0.fetch.rateDist::mean             0.631346                       # Number of instructions fetched each cycle (Total)
system.cpu0.fetch.rateDist::stdev            0.907329                       # Number of instructions fetched each cycle (Total)
system.cpu0.fetch.rateDist::underflows              0      0.00%      0.00% # Number of instructions fetched each cycle (Total)
system.cpu0.fetch.rateDist::0              1332259646     55.63%     55.63% # Number of instructions fetched each cycle (Total)
system.cpu0.fetch.rateDist::1               776382057     32.42%     88.06% # Number of instructions fetched each cycle (Total)
system.cpu0.fetch.rateDist::2               170403129      7.12%     95.17% # Number of instructions fetched each cycle (Total)
system.cpu0.fetch.rateDist::3                93285128      3.90%     99.07% # Number of instructions fetched each cycle (Total)
system.cpu0.fetch.rateDist::4                 9075275      0.38%     99.45% # Number of instructions fetched each cycle (Total)
system.cpu0.fetch.rateDist::5                 7261040      0.30%     99.75% # Number of instructions fetched each cycle (Total)
system.cpu0.fetch.rateDist::6                 1775482      0.07%     99.82% # Number of instructions fetched each cycle (Total)
system.cpu0.fetch.rateDist::7                 2101613      0.09%     99.91% # Number of instructions fetched each cycle (Total)
system.cpu0.fetch.rateDist::8                 2104695      0.09%    100.00% # Number of instructions fetched each cycle (Total)
system.cpu0.fetch.rateDist::overflows               0      0.00%    100.00% # Number of instructions fetched each cycle (Total)
system.cpu0.fetch.rateDist::min_value               0                       # Number of instructions fetched each cycle (Total)
system.cpu0.fetch.rateDist::max_value               8                       # Number of instructions fetched each cycle (Total)
system.cpu0.fetch.rateDist::total          2394648065                       # Number of instructions fetched each cycle (Total)
system.cpu0.fp_regfile_reads                       40                       # number of floating regfile reads
system.cpu0.fp_regfile_writes                      22                       # number of floating regfile writes
system.cpu0.idleCycles                      164994270                       # Total number of cycles that the CPU has spent unscheduled due to idling
system.cpu0.iew.branchMispredicts            10521186                       # Number of branch mispredicts detected at execute
system.cpu0.iew.exec_branches               341260520                       # Number of branches executed
system.cpu0.iew.exec_nop                            0                       # number of nop insts executed
system.cpu0.iew.exec_rate                    0.538901                       # Inst execution rate
system.cpu0.iew.exec_refs                   586892214                       # number of memory reference insts executed
system.cpu0.iew.exec_stores                 155870123                       # Number of stores executed
system.cpu0.iew.exec_swp                            0                       # number of swp insts executed
system.cpu0.iew.iewBlockCycles              332962150                       # Number of cycles IEW is blocking
system.cpu0.iew.iewDispLoadInsts            446381911                       # Number of dispatched load instructions
system.cpu0.iew.iewDispNonSpecInsts           5033762                       # Number of dispatched non-speculative instructions
system.cpu0.iew.iewDispSquashedInsts          3752773                       # Number of squashed instructions skipped by dispatch
system.cpu0.iew.iewDispStoreInsts           163686809                       # Number of dispatched store instructions
system.cpu0.iew.iewDispatchedInsts         1433585455                       # Number of instructions dispatched to IQ
system.cpu0.iew.iewExecLoadInsts            431022091                       # Number of load instructions executed
system.cpu0.iew.iewExecSquashedInsts          9283246                       # Number of squashed instructions skipped in execute
system.cpu0.iew.iewExecutedInsts           1379395065                       # Number of executed instructions
system.cpu0.iew.iewIQFullEvents               1868285                       # Number of times the IQ has become full, causing a stall
system.cpu0.iew.iewIdleCycles                       0                       # Number of cycles IEW is idle
system.cpu0.iew.iewLSQFullEvents              8685238                       # Number of times the LSQ has become full, causing a stall
system.cpu0.iew.iewSquashCycles              10392958                       # Number of cycles IEW is squashing
system.cpu0.iew.iewUnblockCycles             12392561                       # Number of cycles IEW is unblocking
system.cpu0.iew.lsq.thread0.blockedLoads            0                       # Number of blocked loads due to partial load-store forwarding
system.cpu0.iew.lsq.thread0.cacheBlocked       189200                       # Number of times an access to memory failed due to the cache being blocked
system.cpu0.iew.lsq.thread0.forwLoads        20316911                       # Number of loads that had data forwarded from stores
system.cpu0.iew.lsq.thread0.ignoredResponses        39757                       # Number of memory responses ignored because the instruction is squashed
system.cpu0.iew.lsq.thread0.invAddrLoads            0                       # Number of loads ignored due to an invalid address
system.cpu0.iew.lsq.thread0.invAddrSwpfs            0                       # Number of software prefetches ignored due to an invalid address
system.cpu0.iew.lsq.thread0.memOrderViolation        11993                       # Number of memory ordering violations
system.cpu0.iew.lsq.thread0.rescheduledLoads      4798186                       # Number of loads that were rescheduled
system.cpu0.iew.lsq.thread0.squashedLoads     41210411                       # Number of loads squashed
system.cpu0.iew.lsq.thread0.squashedStores     10402121                       # Number of stores squashed
system.cpu0.iew.memOrderViolationEvents         11993                       # Number of memory order violations
system.cpu0.iew.predictedNotTakenIncorrect      1021718                       # Number of branches that were predicted not taken incorrectly
system.cpu0.iew.predictedTakenIncorrect       9499468                       # Number of branches that were predicted taken incorrectly
system.cpu0.iew.wb_consumers                583229295                       # num instructions consuming a value
system.cpu0.iew.wb_count                   1367978175                       # cumulative count of insts written-back
system.cpu0.iew.wb_fanout                    0.894368                       # average fanout of values written-back
system.cpu0.iew.wb_producers                521621449                       # num instructions producing a value
system.cpu0.iew.wb_rate                      0.534441                       # insts written-back per cycle
system.cpu0.iew.wb_sent                    1368079219                       # cumulative count of insts sent to commit
system.cpu0.int_regfile_reads              1694633527                       # number of integer regfile reads
system.cpu0.int_regfile_writes              880605751                       # number of integer regfile writes
system.cpu0.ipc                              0.514350                       # IPC: Instructions Per Cycle
system.cpu0.ipc_total                        0.514350                       # IPC: Total IPC of All Threads
system.cpu0.iq.FU_type_0::No_OpClass          4205649      0.30%      0.30% # Type of FU issued
system.cpu0.iq.FU_type_0::IntAlu            779415369     56.13%     56.43% # Type of FU issued
system.cpu0.iq.FU_type_0::IntMult            11833179      0.85%     57.28% # Type of FU issued
system.cpu0.iq.FU_type_0::IntDiv              2100434      0.15%     57.43% # Type of FU issued
system.cpu0.iq.FU_type_0::FloatAdd                  0      0.00%     57.43% # Type of FU issued
system.cpu0.iq.FU_type_0::FloatCmp                  4      0.00%     57.43% # Type of FU issued
system.cpu0.iq.FU_type_0::FloatCvt                 12      0.00%     57.43% # Type of FU issued
system.cpu0.iq.FU_type_0::FloatMult                 0      0.00%     57.43% # Type of FU issued
system.cpu0.iq.FU_type_0::FloatMultAcc              0      0.00%     57.43% # Type of FU issued
system.cpu0.iq.FU_type_0::FloatDiv                  2      0.00%     57.43% # Type of FU issued
system.cpu0.iq.FU_type_0::FloatMisc                 4      0.00%     57.43% # Type of FU issued
system.cpu0.iq.FU_type_0::FloatSqrt                 0      0.00%     57.43% # Type of FU issued
system.cpu0.iq.FU_type_0::SimdAdd                   0      0.00%     57.43% # Type of FU issued
system.cpu0.iq.FU_type_0::SimdAddAcc                0      0.00%     57.43% # Type of FU issued
system.cpu0.iq.FU_type_0::SimdAlu                   0      0.00%     57.43% # Type of FU issued
system.cpu0.iq.FU_type_0::SimdCmp                   0      0.00%     57.43% # Type of FU issued
system.cpu0.iq.FU_type_0::SimdCvt                   0      0.00%     57.43% # Type of FU issued
system.cpu0.iq.FU_type_0::SimdMisc                  0      0.00%     57.43% # Type of FU issued
system.cpu0.iq.FU_type_0::SimdMult                  0      0.00%     57.43% # Type of FU issued
system.cpu0.iq.FU_type_0::SimdMultAcc               0      0.00%     57.43% # Type of FU issued
system.cpu0.iq.FU_type_0::SimdShift                 0      0.00%     57.43% # Type of FU issued
system.cpu0.iq.FU_type_0::SimdShiftAcc              0      0.00%     57.43% # Type of FU issued
system.cpu0.iq.FU_type_0::SimdDiv                   0      0.00%     57.43% # Type of FU issued
system.cpu0.iq.FU_type_0::SimdSqrt                  0      0.00%     57.43% # Type of FU issued
system.cpu0.iq.FU_type_0::SimdFloatAdd              0      0.00%     57.43% # Type of FU issued
system.cpu0.iq.FU_type_0::SimdFloatAlu              0      0.00%     57.43% # Type of FU issued
system.cpu0.iq.FU_type_0::SimdFloatCmp              0      0.00%     57.43% # Type of FU issued
system.cpu0.iq.FU_type_0::SimdFloatCvt              0      0.00%     57.43% # Type of FU issued
system.cpu0.iq.FU_type_0::SimdFloatDiv              0      0.00%     57.43% # Type of FU issued
system.cpu0.iq.FU_type_0::SimdFloatMisc             0      0.00%     57.43% # Type of FU issued
system.cpu0.iq.FU_type_0::SimdFloatMult             0      0.00%     57.43% # Type of FU issued
system.cpu0.iq.FU_type_0::SimdFloatMultAcc            0      0.00%     57.43% # Type of FU issued
system.cpu0.iq.FU_type_0::SimdFloatSqrt             0      0.00%     57.43% # Type of FU issued
system.cpu0.iq.FU_type_0::SimdReduceAdd             0      0.00%     57.43% # Type of FU issued
system.cpu0.iq.FU_type_0::SimdReduceAlu             0      0.00%     57.43% # Type of FU issued
system.cpu0.iq.FU_type_0::SimdReduceCmp             0      0.00%     57.43% # Type of FU issued
system.cpu0.iq.FU_type_0::SimdFloatReduceAdd            0      0.00%     57.43% # Type of FU issued
system.cpu0.iq.FU_type_0::SimdFloatReduceCmp            0      0.00%     57.43% # Type of FU issued
system.cpu0.iq.FU_type_0::SimdAes                   0      0.00%     57.43% # Type of FU issued
system.cpu0.iq.FU_type_0::SimdAesMix                0      0.00%     57.43% # Type of FU issued
system.cpu0.iq.FU_type_0::SimdSha1Hash              0      0.00%     57.43% # Type of FU issued
system.cpu0.iq.FU_type_0::SimdSha1Hash2             0      0.00%     57.43% # Type of FU issued
system.cpu0.iq.FU_type_0::SimdSha256Hash            0      0.00%     57.43% # Type of FU issued
system.cpu0.iq.FU_type_0::SimdSha256Hash2            0      0.00%     57.43% # Type of FU issued
system.cpu0.iq.FU_type_0::SimdShaSigma2             0      0.00%     57.43% # Type of FU issued
system.cpu0.iq.FU_type_0::SimdShaSigma3             0      0.00%     57.43% # Type of FU issued
system.cpu0.iq.FU_type_0::SimdPredAlu               0      0.00%     57.43% # Type of FU issued
system.cpu0.iq.FU_type_0::MemRead           435658861     31.37%     88.80% # Type of FU issued
system.cpu0.iq.FU_type_0::MemWrite          155464774     11.20%    100.00% # Type of FU issued
system.cpu0.iq.FU_type_0::FloatMemRead              8      0.00%    100.00% # Type of FU issued
system.cpu0.iq.FU_type_0::FloatMemWrite            16      0.00%    100.00% # Type of FU issued
system.cpu0.iq.FU_type_0::IprAccess                 0      0.00%    100.00% # Type of FU issued
system.cpu0.iq.FU_type_0::InstPrefetch              0      0.00%    100.00% # Type of FU issued
system.cpu0.iq.FU_type_0::total            1388678312                       # Type of FU issued
system.cpu0.iq.fp_alu_accesses                     48                       # Number of floating point alu accesses
system.cpu0.iq.fp_inst_queue_reads                 94                       # Number of floating instruction queue reads
system.cpu0.iq.fp_inst_queue_wakeup_accesses           46                       # Number of floating instruction queue wakeup accesses
system.cpu0.iq.fp_inst_queue_writes                46                       # Number of floating instruction queue writes
system.cpu0.iq.fu_busy_cnt                    2995339                       # FU busy when requested
system.cpu0.iq.fu_busy_rate                  0.002157                       # FU busy rate (busy events/executed inst)
system.cpu0.iq.fu_full::No_OpClass                  0      0.00%      0.00% # attempts to use FU when none available
system.cpu0.iq.fu_full::IntAlu                 618610     20.65%     20.65% # attempts to use FU when none available
system.cpu0.iq.fu_full::IntMult                     0      0.00%     20.65% # attempts to use FU when none available
system.cpu0.iq.fu_full::IntDiv                      0      0.00%     20.65% # attempts to use FU when none available
system.cpu0.iq.fu_full::FloatAdd                    0      0.00%     20.65% # attempts to use FU when none available
system.cpu0.iq.fu_full::FloatCmp                    0      0.00%     20.65% # attempts to use FU when none available
system.cpu0.iq.fu_full::FloatCvt                    0      0.00%     20.65% # attempts to use FU when none available
system.cpu0.iq.fu_full::FloatMult                   0      0.00%     20.65% # attempts to use FU when none available
system.cpu0.iq.fu_full::FloatMultAcc                0      0.00%     20.65% # attempts to use FU when none available
system.cpu0.iq.fu_full::FloatDiv                    0      0.00%     20.65% # attempts to use FU when none available
system.cpu0.iq.fu_full::FloatMisc                   0      0.00%     20.65% # attempts to use FU when none available
system.cpu0.iq.fu_full::FloatSqrt                   0      0.00%     20.65% # attempts to use FU when none available
system.cpu0.iq.fu_full::SimdAdd                     0      0.00%     20.65% # attempts to use FU when none available
system.cpu0.iq.fu_full::SimdAddAcc                  0      0.00%     20.65% # attempts to use FU when none available
system.cpu0.iq.fu_full::SimdAlu                     0      0.00%     20.65% # attempts to use FU when none available
system.cpu0.iq.fu_full::SimdCmp                     0      0.00%     20.65% # attempts to use FU when none available
system.cpu0.iq.fu_full::SimdCvt                     0      0.00%     20.65% # attempts to use FU when none available
system.cpu0.iq.fu_full::SimdMisc                    0      0.00%     20.65% # attempts to use FU when none available
system.cpu0.iq.fu_full::SimdMult                    0      0.00%     20.65% # attempts to use FU when none available
system.cpu0.iq.fu_full::SimdMultAcc                 0      0.00%     20.65% # attempts to use FU when none available
system.cpu0.iq.fu_full::SimdShift                   0      0.00%     20.65% # attempts to use FU when none available
system.cpu0.iq.fu_full::SimdShiftAcc                0      0.00%     20.65% # attempts to use FU when none available
system.cpu0.iq.fu_full::SimdDiv                     0      0.00%     20.65% # attempts to use FU when none available
system.cpu0.iq.fu_full::SimdSqrt                    0      0.00%     20.65% # attempts to use FU when none available
system.cpu0.iq.fu_full::SimdFloatAdd                0      0.00%     20.65% # attempts to use FU when none available
system.cpu0.iq.fu_full::SimdFloatAlu                0      0.00%     20.65% # attempts to use FU when none available
system.cpu0.iq.fu_full::SimdFloatCmp                0      0.00%     20.65% # attempts to use FU when none available
system.cpu0.iq.fu_full::SimdFloatCvt                0      0.00%     20.65% # attempts to use FU when none available
system.cpu0.iq.fu_full::SimdFloatDiv                0      0.00%     20.65% # attempts to use FU when none available
system.cpu0.iq.fu_full::SimdFloatMisc               0      0.00%     20.65% # attempts to use FU when none available
system.cpu0.iq.fu_full::SimdFloatMult               0      0.00%     20.65% # attempts to use FU when none available
system.cpu0.iq.fu_full::SimdFloatMultAcc            0      0.00%     20.65% # attempts to use FU when none available
system.cpu0.iq.fu_full::SimdFloatSqrt               0      0.00%     20.65% # attempts to use FU when none available
system.cpu0.iq.fu_full::SimdReduceAdd               0      0.00%     20.65% # attempts to use FU when none available
system.cpu0.iq.fu_full::SimdReduceAlu               0      0.00%     20.65% # attempts to use FU when none available
system.cpu0.iq.fu_full::SimdReduceCmp               0      0.00%     20.65% # attempts to use FU when none available
system.cpu0.iq.fu_full::SimdFloatReduceAdd            0      0.00%     20.65% # attempts to use FU when none available
system.cpu0.iq.fu_full::SimdFloatReduceCmp            0      0.00%     20.65% # attempts to use FU when none available
system.cpu0.iq.fu_full::SimdAes                     0      0.00%     20.65% # attempts to use FU when none available
system.cpu0.iq.fu_full::SimdAesMix                  0      0.00%     20.65% # attempts to use FU when none available
system.cpu0.iq.fu_full::SimdSha1Hash                0      0.00%     20.65% # attempts to use FU when none available
system.cpu0.iq.fu_full::SimdSha1Hash2               0      0.00%     20.65% # attempts to use FU when none available
system.cpu0.iq.fu_full::SimdSha256Hash              0      0.00%     20.65% # attempts to use FU when none available
system.cpu0.iq.fu_full::SimdSha256Hash2             0      0.00%     20.65% # attempts to use FU when none available
system.cpu0.iq.fu_full::SimdShaSigma2               0      0.00%     20.65% # attempts to use FU when none available
system.cpu0.iq.fu_full::SimdShaSigma3               0      0.00%     20.65% # attempts to use FU when none available
system.cpu0.iq.fu_full::SimdPredAlu                 0      0.00%     20.65% # attempts to use FU when none available
system.cpu0.iq.fu_full::MemRead               1957813     65.36%     86.01% # attempts to use FU when none available
system.cpu0.iq.fu_full::MemWrite               418914     13.99%    100.00% # attempts to use FU when none available
system.cpu0.iq.fu_full::FloatMemRead                0      0.00%    100.00% # attempts to use FU when none available
system.cpu0.iq.fu_full::FloatMemWrite               2      0.00%    100.00% # attempts to use FU when none available
system.cpu0.iq.fu_full::IprAccess                   0      0.00%    100.00% # attempts to use FU when none available
system.cpu0.iq.fu_full::InstPrefetch                0      0.00%    100.00% # attempts to use FU when none available
system.cpu0.iq.int_alu_accesses            1387467954                       # Number of integer alu accesses
system.cpu0.iq.int_inst_queue_reads        5175243324                       # Number of integer instruction queue reads
system.cpu0.iq.int_inst_queue_wakeup_accesses   1367978129                       # Number of integer instruction queue wakeup accesses
system.cpu0.iq.int_inst_queue_writes       1548526264                       # Number of integer instruction queue writes
system.cpu0.iq.iqInstsAdded                1418528570                       # Number of instructions added to the IQ (excludes non-spec)
system.cpu0.iq.iqInstsIssued               1388678312                       # Number of instructions issued
system.cpu0.iq.iqNonSpecInstsAdded           15056885                       # Number of non-speculative instructions added to the IQ
system.cpu0.iq.iqSquashedInstsExamined      114929321                       # Number of squashed instructions iterated over during squash; mainly for profiling
system.cpu0.iq.iqSquashedInstsIssued           243391                       # Number of squashed instructions issued
system.cpu0.iq.iqSquashedNonSpecRemoved       8747084                       # Number of squashed non-spec instructions that were removed
system.cpu0.iq.iqSquashedOperandsExamined     65682286                       # Number of squashed operands that are examined and possibly removed from graph
system.cpu0.iq.issued_per_cycle::samples   2394648065                       # Number of insts issued each cycle
system.cpu0.iq.issued_per_cycle::mean        0.579909                       # Number of insts issued each cycle
system.cpu0.iq.issued_per_cycle::stdev       0.806326                       # Number of insts issued each cycle
system.cpu0.iq.issued_per_cycle::underflows            0      0.00%      0.00% # Number of insts issued each cycle
system.cpu0.iq.issued_per_cycle::0         1383432601     57.77%     57.77% # Number of insts issued each cycle
system.cpu0.iq.issued_per_cycle::1          708277143     29.58%     87.35% # Number of insts issued each cycle
system.cpu0.iq.issued_per_cycle::2          250195801     10.45%     97.80% # Number of insts issued each cycle
system.cpu0.iq.issued_per_cycle::3           39707444      1.66%     99.46% # Number of insts issued each cycle
system.cpu0.iq.issued_per_cycle::4            7371515      0.31%     99.76% # Number of insts issued each cycle
system.cpu0.iq.issued_per_cycle::5            3517872      0.15%     99.91% # Number of insts issued each cycle
system.cpu0.iq.issued_per_cycle::6            1439891      0.06%     99.97% # Number of insts issued each cycle
system.cpu0.iq.issued_per_cycle::7             473915      0.02%     99.99% # Number of insts issued each cycle
system.cpu0.iq.issued_per_cycle::8             231883      0.01%    100.00% # Number of insts issued each cycle
system.cpu0.iq.issued_per_cycle::overflows            0      0.00%    100.00% # Number of insts issued each cycle
system.cpu0.iq.issued_per_cycle::min_value            0                       # Number of insts issued each cycle
system.cpu0.iq.issued_per_cycle::max_value            8                       # Number of insts issued each cycle
system.cpu0.iq.issued_per_cycle::total     2394648065                       # Number of insts issued each cycle
system.cpu0.iq.rate                          0.542528                       # Inst issue rate
system.cpu0.iq.vec_alu_accesses                     0                       # Number of vector alu accesses
system.cpu0.iq.vec_inst_queue_reads                 0                       # Number of vector instruction queue reads
system.cpu0.iq.vec_inst_queue_wakeup_accesses            0                       # Number of vector instruction queue wakeup accesses
system.cpu0.iq.vec_inst_queue_writes                0                       # Number of vector instruction queue writes
system.cpu0.itb.accesses                            0                       # DTB accesses
system.cpu0.itb.hits                                0                       # DTB hits
system.cpu0.itb.misses                              0                       # DTB misses
system.cpu0.itb.read_accesses                       0                       # DTB read accesses
system.cpu0.itb.read_hits                           0                       # DTB read hits
system.cpu0.itb.read_misses                         0                       # DTB read misses
system.cpu0.itb.write_accesses                      0                       # DTB write accesses
system.cpu0.itb.write_hits                          0                       # DTB write hits
system.cpu0.itb.write_misses                        0                       # DTB write misses
system.cpu0.memDep0.conflictingLoads         33452275                       # Number of conflicting loads.
system.cpu0.memDep0.conflictingStores         4518782                       # Number of conflicting stores.
system.cpu0.memDep0.insertedLoads           446381911                       # Number of loads inserted to the mem dependence unit.
system.cpu0.memDep0.insertedStores          163686809                       # Number of stores inserted to the mem dependence unit.
system.cpu0.misc_regfile_reads                   1905                       # number of misc regfile reads
system.cpu0.misc_regfile_writes                    22                       # number of misc regfile writes
system.cpu0.numCycles                      2559642335                       # number of cpu cycles simulated
system.cpu0.numWorkItemsCompleted                   0                       # number of work items this cpu completed
system.cpu0.numWorkItemsStarted                     0                       # number of work items this cpu started
system.cpu0.quiesceCycles                     4216989                       # Total number of cycles that CPU has spent quiesced or waiting for an interrupt
system.cpu0.rename.BlockCycles              358109743                       # Number of cycles rename is blocking
system.cpu0.rename.CommittedMaps            845198806                       # Number of HB maps that are committed
system.cpu0.rename.IQFullEvents              10181569                       # Number of times rename has blocked due to IQ full
system.cpu0.rename.IdleCycles               974713437                       # Number of cycles rename is idle
system.cpu0.rename.LQFullEvents              14644597                       # Number of times rename has blocked due to LQ full
system.cpu0.rename.ROBFullEvents                24726                       # Number of times rename has blocked due to ROB full
system.cpu0.rename.RenameLookups           1779179829                       # Number of register rename lookups that rename has made
system.cpu0.rename.RenamedInsts            1449686495                       # Number of instructions processed by rename
system.cpu0.rename.RenamedOperands          940835926                       # Number of destination operands rename has renamed
system.cpu0.rename.RunCycles                994636072                       # Number of cycles rename is running
system.cpu0.rename.SQFullEvents              30212090                       # Number of times rename has blocked due to SQ full
system.cpu0.rename.SquashCycles              10392958                       # Number of cycles rename is squashing
system.cpu0.rename.UnblockCycles             56626625                       # Number of cycles rename is unblocking
system.cpu0.rename.UndoneMaps                95637112                       # Number of HB maps that are undone due to squashing
system.cpu0.rename.fp_rename_lookups               40                       # Number of floating rename lookups
system.cpu0.rename.int_rename_lookups      1779179789                       # Number of integer rename lookups
system.cpu0.rename.serializeStallCycles        169230                       # count of cycles rename stalled for serializing inst
system.cpu0.rename.serializingInsts              5927                       # count of serializing insts renamed
system.cpu0.rename.skidInsts                 26271817                       # count of insts added to the skid buffer
system.cpu0.rename.tempSerializingInsts          5916                       # count of temporary serializing insts renamed
system.cpu0.rob.rob_reads                  3771384586                       # The number of ROB reads
system.cpu0.rob.rob_writes                 2888454348                       # The number of ROB writes
system.cpu0.timesIdled                       29898860                       # Number of times that the entire CPU went into an idle state and unscheduled itself
system.cpu0.workload.numSyscalls                 1872                       # Number of system calls
system.cpu1.branchPred.BTBCorrect                   0                       # Number of correct BTB predictions (this stat may not work properly.
system.cpu1.branchPred.BTBHitPct            90.619661                       # BTB Hit Percentage
system.cpu1.branchPred.BTBHits               20828583                       # Number of BTB hits
system.cpu1.branchPred.BTBLookups            22984618                       # Number of BTB lookups
system.cpu1.branchPred.RASInCorrect                 0                       # Number of incorrect RAS predictions.
system.cpu1.branchPred.condIncorrect          2790408                       # Number of conditional branches incorrect
system.cpu1.branchPred.condPredicted         30837329                       # Number of conditional branches predicted
system.cpu1.branchPred.indirectHits           1076646                       # Number of indirect target hits.
system.cpu1.branchPred.indirectLookups        1102220                       # Number of indirect predictor lookups.
system.cpu1.branchPred.indirectMisses           25574                       # Number of indirect misses.
system.cpu1.branchPred.lookups               35474412                       # Number of BP lookups
system.cpu1.branchPred.usedRAS                      0                       # Number of times the RAS was used to get a target.
system.cpu1.branchPredindirectMispredicted        48220                       # Number of mispredicted indirect branches.
system.cpu1.commit.amos                       2100005                       # Number of atomic instructions committed
system.cpu1.commit.branchMispredicts          1987515                       # The number of times a branch was mispredicted
system.cpu1.commit.branches                  28117683                       # Number of branches committed
system.cpu1.commit.bw_lim_events              3975499                       # number cycles where commit BW limit reached
system.cpu1.commit.commitNonSpecStalls        6300703                       # The number of times commit has been forced to stall to communicate backwards
system.cpu1.commit.commitSquashedInsts       17263381                       # The number of squashed insts skipped by commit
system.cpu1.commit.committedInsts           120057553                       # Number of instructions committed
system.cpu1.commit.committedOps             122157739                       # Number of ops (including micro ops) committed
system.cpu1.commit.committed_per_cycle::samples    473322642                       # Number of insts commited each cycle
system.cpu1.commit.committed_per_cycle::mean     0.258086                       # Number of insts commited each cycle
system.cpu1.commit.committed_per_cycle::stdev     1.019544                       # Number of insts commited each cycle
system.cpu1.commit.committed_per_cycle::underflows            0      0.00%      0.00% # Number of insts commited each cycle
system.cpu1.commit.committed_per_cycle::0    423714010     89.52%     89.52% # Number of insts commited each cycle
system.cpu1.commit.committed_per_cycle::1     24660506      5.21%     94.73% # Number of insts commited each cycle
system.cpu1.commit.committed_per_cycle::2      8650520      1.83%     96.56% # Number of insts commited each cycle
system.cpu1.commit.committed_per_cycle::3      7072330      1.49%     98.05% # Number of insts commited each cycle
system.cpu1.commit.committed_per_cycle::4      1988352      0.42%     98.47% # Number of insts commited each cycle
system.cpu1.commit.committed_per_cycle::5       734462      0.16%     98.63% # Number of insts commited each cycle
system.cpu1.commit.committed_per_cycle::6      2139248      0.45%     99.08% # Number of insts commited each cycle
system.cpu1.commit.committed_per_cycle::7       387715      0.08%     99.16% # Number of insts commited each cycle
system.cpu1.commit.committed_per_cycle::8      3975499      0.84%    100.00% # Number of insts commited each cycle
system.cpu1.commit.committed_per_cycle::overflows            0      0.00%    100.00% # Number of insts commited each cycle
system.cpu1.commit.committed_per_cycle::min_value            0                       # Number of insts commited each cycle
system.cpu1.commit.committed_per_cycle::max_value            8                       # Number of insts commited each cycle
system.cpu1.commit.committed_per_cycle::total    473322642                       # Number of insts commited each cycle
system.cpu1.commit.fp_insts                        12                       # Number of committed floating point instructions.
system.cpu1.commit.function_calls             1797761                       # Number of function calls committed.
system.cpu1.commit.int_insts                116594990                       # Number of committed integer instructions.
system.cpu1.commit.loads                     30174609                       # Number of loads committed
system.cpu1.commit.membars                    4200129                       # Number of memory barriers committed
system.cpu1.commit.op_class_0::No_OpClass      4200129      3.44%      3.44% # Class of committed instruction
system.cpu1.commit.op_class_0::IntAlu        76662575     62.76%     66.20% # Class of committed instruction
system.cpu1.commit.op_class_0::IntMult             44      0.00%     66.20% # Class of committed instruction
system.cpu1.commit.op_class_0::IntDiv              88      0.00%     66.20% # Class of committed instruction
system.cpu1.commit.op_class_0::FloatAdd             0      0.00%     66.20% # Class of committed instruction
system.cpu1.commit.op_class_0::FloatCmp             0      0.00%     66.20% # Class of committed instruction
system.cpu1.commit.op_class_0::FloatCvt             0      0.00%     66.20% # Class of committed instruction
system.cpu1.commit.op_class_0::FloatMult            0      0.00%     66.20% # Class of committed instruction
system.cpu1.commit.op_class_0::FloatMultAcc            0      0.00%     66.20% # Class of committed instruction
system.cpu1.commit.op_class_0::FloatDiv             0      0.00%     66.20% # Class of committed instruction
system.cpu1.commit.op_class_0::FloatMisc            0      0.00%     66.20% # Class of committed instruction
system.cpu1.commit.op_class_0::FloatSqrt            0      0.00%     66.20% # Class of committed instruction
system.cpu1.commit.op_class_0::SimdAdd              0      0.00%     66.20% # Class of committed instruction
system.cpu1.commit.op_class_0::SimdAddAcc            0      0.00%     66.20% # Class of committed instruction
system.cpu1.commit.op_class_0::SimdAlu              0      0.00%     66.20% # Class of committed instruction
system.cpu1.commit.op_class_0::SimdCmp              0      0.00%     66.20% # Class of committed instruction
system.cpu1.commit.op_class_0::SimdCvt              0      0.00%     66.20% # Class of committed instruction
system.cpu1.commit.op_class_0::SimdMisc             0      0.00%     66.20% # Class of committed instruction
system.cpu1.commit.op_class_0::SimdMult             0      0.00%     66.20% # Class of committed instruction
system.cpu1.commit.op_class_0::SimdMultAcc            0      0.00%     66.20% # Class of committed instruction
system.cpu1.commit.op_class_0::SimdShift            0      0.00%     66.20% # Class of committed instruction
system.cpu1.commit.op_class_0::SimdShiftAcc            0      0.00%     66.20% # Class of committed instruction
system.cpu1.commit.op_class_0::SimdDiv              0      0.00%     66.20% # Class of committed instruction
system.cpu1.commit.op_class_0::SimdSqrt             0      0.00%     66.20% # Class of committed instruction
system.cpu1.commit.op_class_0::SimdFloatAdd            0      0.00%     66.20% # Class of committed instruction
system.cpu1.commit.op_class_0::SimdFloatAlu            0      0.00%     66.20% # Class of committed instruction
system.cpu1.commit.op_class_0::SimdFloatCmp            0      0.00%     66.20% # Class of committed instruction
system.cpu1.commit.op_class_0::SimdFloatCvt            0      0.00%     66.20% # Class of committed instruction
system.cpu1.commit.op_class_0::SimdFloatDiv            0      0.00%     66.20% # Class of committed instruction
system.cpu1.commit.op_class_0::SimdFloatMisc            0      0.00%     66.20% # Class of committed instruction
system.cpu1.commit.op_class_0::SimdFloatMult            0      0.00%     66.20% # Class of committed instruction
system.cpu1.commit.op_class_0::SimdFloatMultAcc            0      0.00%     66.20% # Class of committed instruction
system.cpu1.commit.op_class_0::SimdFloatSqrt            0      0.00%     66.20% # Class of committed instruction
system.cpu1.commit.op_class_0::SimdReduceAdd            0      0.00%     66.20% # Class of committed instruction
system.cpu1.commit.op_class_0::SimdReduceAlu            0      0.00%     66.20% # Class of committed instruction
system.cpu1.commit.op_class_0::SimdReduceCmp            0      0.00%     66.20% # Class of committed instruction
system.cpu1.commit.op_class_0::SimdFloatReduceAdd            0      0.00%     66.20% # Class of committed instruction
system.cpu1.commit.op_class_0::SimdFloatReduceCmp            0      0.00%     66.20% # Class of committed instruction
system.cpu1.commit.op_class_0::SimdAes              0      0.00%     66.20% # Class of committed instruction
system.cpu1.commit.op_class_0::SimdAesMix            0      0.00%     66.20% # Class of committed instruction
system.cpu1.commit.op_class_0::SimdSha1Hash            0      0.00%     66.20% # Class of committed instruction
system.cpu1.commit.op_class_0::SimdSha1Hash2            0      0.00%     66.20% # Class of committed instruction
system.cpu1.commit.op_class_0::SimdSha256Hash            0      0.00%     66.20% # Class of committed instruction
system.cpu1.commit.op_class_0::SimdSha256Hash2            0      0.00%     66.20% # Class of committed instruction
system.cpu1.commit.op_class_0::SimdShaSigma2            0      0.00%     66.20% # Class of committed instruction
system.cpu1.commit.op_class_0::SimdShaSigma3            0      0.00%     66.20% # Class of committed instruction
system.cpu1.commit.op_class_0::SimdPredAlu            0      0.00%     66.20% # Class of committed instruction
system.cpu1.commit.op_class_0::MemRead       32274614     26.42%     92.62% # Class of committed instruction
system.cpu1.commit.op_class_0::MemWrite       9020277      7.38%    100.00% # Class of committed instruction
system.cpu1.commit.op_class_0::FloatMemRead            0      0.00%    100.00% # Class of committed instruction
system.cpu1.commit.op_class_0::FloatMemWrite           12      0.00%    100.00% # Class of committed instruction
system.cpu1.commit.op_class_0::IprAccess            0      0.00%    100.00% # Class of committed instruction
system.cpu1.commit.op_class_0::InstPrefetch            0      0.00%    100.00% # Class of committed instruction
system.cpu1.commit.op_class_0::total        122157739                       # Class of committed instruction
system.cpu1.commit.refs                      41294903                       # Number of memory references committed
system.cpu1.commit.swp_count                        0                       # Number of s/w prefetches committed
system.cpu1.commit.vec_insts                        0                       # Number of committed Vector instructions.
system.cpu1.committedInsts                  120057553                       # Number of Instructions Simulated
system.cpu1.committedOps                    122157739                       # Number of Ops (including micro ops) Simulated
system.cpu1.cpi                              3.975388                       # CPI: Cycles Per Instruction
system.cpu1.cpi_total                        3.975388                       # CPI: Total CPI of All Threads
system.cpu1.decode.BlockedCycles            380574645                       # Number of cycles decode is blocked
system.cpu1.decode.BranchMispred               881018                       # Number of times decode detected a branch misprediction
system.cpu1.decode.BranchResolved            19856330                       # Number of times decode resolved a branch
system.cpu1.decode.DecodedInsts             146220662                       # Number of instructions handled by decode
system.cpu1.decode.IdleCycles                23515488                       # Number of cycles decode is idle
system.cpu1.decode.RunCycles                 65506460                       # Number of cycles decode is running
system.cpu1.decode.SquashCycles               1989042                       # Number of cycles decode is squashing
system.cpu1.decode.SquashedInsts              2073365                       # Number of squashed instructions handled by decode
system.cpu1.decode.UnblockCycles              5200543                       # Number of cycles decode is unblocking
system.cpu1.dtb.accesses                            0                       # DTB accesses
system.cpu1.dtb.hits                                0                       # DTB hits
system.cpu1.dtb.misses                              0                       # DTB misses
system.cpu1.dtb.read_accesses                       0                       # DTB read accesses
system.cpu1.dtb.read_hits                           0                       # DTB read hits
system.cpu1.dtb.read_misses                         0                       # DTB read misses
system.cpu1.dtb.write_accesses                      0                       # DTB write accesses
system.cpu1.dtb.write_hits                          0                       # DTB write hits
system.cpu1.dtb.write_misses                        0                       # DTB write misses
system.cpu1.fetch.Branches                   35474412                       # Number of branches that fetch encountered
system.cpu1.fetch.CacheLines                 21783716                       # Number of cache lines fetched
system.cpu1.fetch.Cycles                    450578242                       # Number of cycles fetch has run and was not squashing or blocked
system.cpu1.fetch.IcacheSquashes               204151                       # Number of outstanding Icache misses that were squashed
system.cpu1.fetch.IcacheWaitRetryStallCycles           21                       # Number of stall cycles due to full MSHR
system.cpu1.fetch.Insts                     151837567                       # Number of instructions fetch has processed
system.cpu1.fetch.MiscStallCycles                   2                       # Number of cycles fetch has spent waiting on interrupts, or bad addresses, or out of MSHRs
system.cpu1.fetch.SquashCycles                5583870                       # Number of cycles fetch has spent squashing
system.cpu1.fetch.branchRate                 0.074327                       # Number of branch fetches per cycle
system.cpu1.fetch.icacheStallCycles          23415978                       # Number of cycles fetch is stalled on an Icache miss
system.cpu1.fetch.predictedBranches          21905229                       # Number of branches that fetch has predicted taken
system.cpu1.fetch.rate                       0.318134                       # Number of inst fetches per cycle
system.cpu1.fetch.rateDist::samples         476786178                       # Number of instructions fetched each cycle (Total)
system.cpu1.fetch.rateDist::mean             0.322867                       # Number of instructions fetched each cycle (Total)
system.cpu1.fetch.rateDist::stdev            0.746783                       # Number of instructions fetched each cycle (Total)
system.cpu1.fetch.rateDist::underflows              0      0.00%      0.00% # Number of instructions fetched each cycle (Total)
system.cpu1.fetch.rateDist::0               378792497     79.45%     79.45% # Number of instructions fetched each cycle (Total)
system.cpu1.fetch.rateDist::1                62177410     13.04%     92.49% # Number of instructions fetched each cycle (Total)
system.cpu1.fetch.rateDist::2                19804693      4.15%     96.64% # Number of instructions fetched each cycle (Total)
system.cpu1.fetch.rateDist::3                12466659      2.61%     99.26% # Number of instructions fetched each cycle (Total)
system.cpu1.fetch.rateDist::4                 3039057      0.64%     99.89% # Number of instructions fetched each cycle (Total)
system.cpu1.fetch.rateDist::5                  440658      0.09%     99.99% # Number of instructions fetched each cycle (Total)
system.cpu1.fetch.rateDist::6                   64438      0.01%    100.00% # Number of instructions fetched each cycle (Total)
system.cpu1.fetch.rateDist::7                     554      0.00%    100.00% # Number of instructions fetched each cycle (Total)
system.cpu1.fetch.rateDist::8                     212      0.00%    100.00% # Number of instructions fetched each cycle (Total)
system.cpu1.fetch.rateDist::overflows               0      0.00%    100.00% # Number of instructions fetched each cycle (Total)
system.cpu1.fetch.rateDist::min_value               0                       # Number of instructions fetched each cycle (Total)
system.cpu1.fetch.rateDist::max_value               8                       # Number of instructions fetched each cycle (Total)
system.cpu1.fetch.rateDist::total           476786178                       # Number of instructions fetched each cycle (Total)
system.cpu1.fp_regfile_reads                       12                       # number of floating regfile reads
system.cpu1.idleCycles                         489149                       # Total number of cycles that the CPU has spent unscheduled due to idling
system.cpu1.iew.branchMispredicts             2089372                       # Number of branch mispredicts detected at execute
system.cpu1.iew.exec_branches                30658067                       # Number of branches executed
system.cpu1.iew.exec_nop                            0                       # number of nop insts executed
system.cpu1.iew.exec_rate                    0.280758                       # Inst execution rate
system.cpu1.iew.exec_refs                    45717510                       # number of memory reference insts executed
system.cpu1.iew.exec_stores                  11556758                       # Number of stores executed
system.cpu1.iew.exec_swp                            0                       # number of swp insts executed
system.cpu1.iew.iewBlockCycles              314989821                       # Number of cycles IEW is blocking
system.cpu1.iew.iewDispLoadInsts             34993386                       # Number of dispatched load instructions
system.cpu1.iew.iewDispNonSpecInsts           2100683                       # Number of dispatched non-speculative instructions
system.cpu1.iew.iewDispSquashedInsts          1984419                       # Number of squashed instructions skipped by dispatch
system.cpu1.iew.iewDispStoreInsts            11962790                       # Number of dispatched store instructions
system.cpu1.iew.iewDispatchedInsts          139377323                       # Number of instructions dispatched to IQ
system.cpu1.iew.iewExecLoadInsts             34160752                       # Number of load instructions executed
system.cpu1.iew.iewExecSquashedInsts          2015156                       # Number of squashed instructions skipped in execute
system.cpu1.iew.iewExecutedInsts            133998853                       # Number of executed instructions
system.cpu1.iew.iewIQFullEvents               1428591                       # Number of times the IQ has become full, causing a stall
system.cpu1.iew.iewIdleCycles                       0                       # Number of cycles IEW is idle
system.cpu1.iew.iewLSQFullEvents              6143549                       # Number of times the LSQ has become full, causing a stall
system.cpu1.iew.iewSquashCycles               1989042                       # Number of cycles IEW is squashing
system.cpu1.iew.iewUnblockCycles             10122902                       # Number of cycles IEW is unblocking
system.cpu1.iew.lsq.thread0.blockedLoads            0                       # Number of blocked loads due to partial load-store forwarding
system.cpu1.iew.lsq.thread0.cacheBlocked        92691                       # Number of times an access to memory failed due to the cache being blocked
system.cpu1.iew.lsq.thread0.forwLoads         1101245                       # Number of loads that had data forwarded from stores
system.cpu1.iew.lsq.thread0.ignoredResponses        33142                       # Number of memory responses ignored because the instruction is squashed
system.cpu1.iew.lsq.thread0.invAddrLoads            0                       # Number of loads ignored due to an invalid address
system.cpu1.iew.lsq.thread0.invAddrSwpfs            0                       # Number of software prefetches ignored due to an invalid address
system.cpu1.iew.lsq.thread0.memOrderViolation         2023                       # Number of memory ordering violations
system.cpu1.iew.lsq.thread0.rescheduledLoads        15903                       # Number of loads that were rescheduled
system.cpu1.iew.lsq.thread0.squashedLoads      4818777                       # Number of loads squashed
system.cpu1.iew.lsq.thread0.squashedStores       842496                       # Number of stores squashed
system.cpu1.iew.memOrderViolationEvents          2023                       # Number of memory order violations
system.cpu1.iew.predictedNotTakenIncorrect       541259                       # Number of branches that were predicted not taken incorrectly
system.cpu1.iew.predictedTakenIncorrect       1548113                       # Number of branches that were predicted taken incorrectly
system.cpu1.iew.wb_consumers                 77376349                       # num instructions consuming a value
system.cpu1.iew.wb_count                    132405035                       # cumulative count of insts written-back
system.cpu1.iew.wb_fanout                    0.842603                       # average fanout of values written-back
system.cpu1.iew.wb_producers                 65197525                       # num instructions producing a value
system.cpu1.iew.wb_rate                      0.277419                       # insts written-back per cycle
system.cpu1.iew.wb_sent                     132476338                       # cumulative count of insts sent to commit
system.cpu1.int_regfile_reads               169946216                       # number of integer regfile reads
system.cpu1.int_regfile_writes               89187516                       # number of integer regfile writes
system.cpu1.ipc                              0.251548                       # IPC: Instructions Per Cycle
system.cpu1.ipc_total                        0.251548                       # IPC: Total IPC of All Threads
system.cpu1.iq.FU_type_0::No_OpClass          4200244      3.09%      3.09% # Type of FU issued
system.cpu1.iq.FU_type_0::IntAlu             85538088     62.89%     65.98% # Type of FU issued
system.cpu1.iq.FU_type_0::IntMult                  46      0.00%     65.98% # Type of FU issued
system.cpu1.iq.FU_type_0::IntDiv                   88      0.00%     65.98% # Type of FU issued
system.cpu1.iq.FU_type_0::FloatAdd                  0      0.00%     65.98% # Type of FU issued
system.cpu1.iq.FU_type_0::FloatCmp                  0      0.00%     65.98% # Type of FU issued
system.cpu1.iq.FU_type_0::FloatCvt                  0      0.00%     65.98% # Type of FU issued
system.cpu1.iq.FU_type_0::FloatMult                 0      0.00%     65.98% # Type of FU issued
system.cpu1.iq.FU_type_0::FloatMultAcc              0      0.00%     65.98% # Type of FU issued
system.cpu1.iq.FU_type_0::FloatDiv                  0      0.00%     65.98% # Type of FU issued
system.cpu1.iq.FU_type_0::FloatMisc                 0      0.00%     65.98% # Type of FU issued
system.cpu1.iq.FU_type_0::FloatSqrt                 0      0.00%     65.98% # Type of FU issued
system.cpu1.iq.FU_type_0::SimdAdd                   0      0.00%     65.98% # Type of FU issued
system.cpu1.iq.FU_type_0::SimdAddAcc                0      0.00%     65.98% # Type of FU issued
system.cpu1.iq.FU_type_0::SimdAlu                   0      0.00%     65.98% # Type of FU issued
system.cpu1.iq.FU_type_0::SimdCmp                   0      0.00%     65.98% # Type of FU issued
system.cpu1.iq.FU_type_0::SimdCvt                   0      0.00%     65.98% # Type of FU issued
system.cpu1.iq.FU_type_0::SimdMisc                  0      0.00%     65.98% # Type of FU issued
system.cpu1.iq.FU_type_0::SimdMult                  0      0.00%     65.98% # Type of FU issued
system.cpu1.iq.FU_type_0::SimdMultAcc               0      0.00%     65.98% # Type of FU issued
system.cpu1.iq.FU_type_0::SimdShift                 0      0.00%     65.98% # Type of FU issued
system.cpu1.iq.FU_type_0::SimdShiftAcc              0      0.00%     65.98% # Type of FU issued
system.cpu1.iq.FU_type_0::SimdDiv                   0      0.00%     65.98% # Type of FU issued
system.cpu1.iq.FU_type_0::SimdSqrt                  0      0.00%     65.98% # Type of FU issued
system.cpu1.iq.FU_type_0::SimdFloatAdd              0      0.00%     65.98% # Type of FU issued
system.cpu1.iq.FU_type_0::SimdFloatAlu              0      0.00%     65.98% # Type of FU issued
system.cpu1.iq.FU_type_0::SimdFloatCmp              0      0.00%     65.98% # Type of FU issued
system.cpu1.iq.FU_type_0::SimdFloatCvt              0      0.00%     65.98% # Type of FU issued
system.cpu1.iq.FU_type_0::SimdFloatDiv              0      0.00%     65.98% # Type of FU issued
system.cpu1.iq.FU_type_0::SimdFloatMisc             0      0.00%     65.98% # Type of FU issued
system.cpu1.iq.FU_type_0::SimdFloatMult             0      0.00%     65.98% # Type of FU issued
system.cpu1.iq.FU_type_0::SimdFloatMultAcc            0      0.00%     65.98% # Type of FU issued
system.cpu1.iq.FU_type_0::SimdFloatSqrt             0      0.00%     65.98% # Type of FU issued
system.cpu1.iq.FU_type_0::SimdReduceAdd             0      0.00%     65.98% # Type of FU issued
system.cpu1.iq.FU_type_0::SimdReduceAlu             0      0.00%     65.98% # Type of FU issued
system.cpu1.iq.FU_type_0::SimdReduceCmp             0      0.00%     65.98% # Type of FU issued
system.cpu1.iq.FU_type_0::SimdFloatReduceAdd            0      0.00%     65.98% # Type of FU issued
system.cpu1.iq.FU_type_0::SimdFloatReduceCmp            0      0.00%     65.98% # Type of FU issued
system.cpu1.iq.FU_type_0::SimdAes                   0      0.00%     65.98% # Type of FU issued
system.cpu1.iq.FU_type_0::SimdAesMix                0      0.00%     65.98% # Type of FU issued
system.cpu1.iq.FU_type_0::SimdSha1Hash              0      0.00%     65.98% # Type of FU issued
system.cpu1.iq.FU_type_0::SimdSha1Hash2             0      0.00%     65.98% # Type of FU issued
system.cpu1.iq.FU_type_0::SimdSha256Hash            0      0.00%     65.98% # Type of FU issued
system.cpu1.iq.FU_type_0::SimdSha256Hash2            0      0.00%     65.98% # Type of FU issued
system.cpu1.iq.FU_type_0::SimdShaSigma2             0      0.00%     65.98% # Type of FU issued
system.cpu1.iq.FU_type_0::SimdShaSigma3             0      0.00%     65.98% # Type of FU issued
system.cpu1.iq.FU_type_0::SimdPredAlu               0      0.00%     65.98% # Type of FU issued
system.cpu1.iq.FU_type_0::MemRead            36731039     27.01%     92.98% # Type of FU issued
system.cpu1.iq.FU_type_0::MemWrite            9544492      7.02%    100.00% # Type of FU issued
system.cpu1.iq.FU_type_0::FloatMemRead              0      0.00%    100.00% # Type of FU issued
system.cpu1.iq.FU_type_0::FloatMemWrite            12      0.00%    100.00% # Type of FU issued
system.cpu1.iq.FU_type_0::IprAccess                 0      0.00%    100.00% # Type of FU issued
system.cpu1.iq.FU_type_0::InstPrefetch              0      0.00%    100.00% # Type of FU issued
system.cpu1.iq.FU_type_0::total             136014009                       # Type of FU issued
system.cpu1.iq.fp_alu_accesses                     14                       # Number of floating point alu accesses
system.cpu1.iq.fp_inst_queue_reads                 26                       # Number of floating instruction queue reads
system.cpu1.iq.fp_inst_queue_wakeup_accesses           12                       # Number of floating instruction queue wakeup accesses
system.cpu1.iq.fp_inst_queue_writes                12                       # Number of floating instruction queue writes
system.cpu1.iq.fu_busy_cnt                    2889448                       # FU busy when requested
system.cpu1.iq.fu_busy_rate                  0.021244                       # FU busy rate (busy events/executed inst)
system.cpu1.iq.fu_full::No_OpClass                  0      0.00%      0.00% # attempts to use FU when none available
system.cpu1.iq.fu_full::IntAlu                 629317     21.78%     21.78% # attempts to use FU when none available
system.cpu1.iq.fu_full::IntMult                     0      0.00%     21.78% # attempts to use FU when none available
system.cpu1.iq.fu_full::IntDiv                      0      0.00%     21.78% # attempts to use FU when none available
system.cpu1.iq.fu_full::FloatAdd                    0      0.00%     21.78% # attempts to use FU when none available
system.cpu1.iq.fu_full::FloatCmp                    0      0.00%     21.78% # attempts to use FU when none available
system.cpu1.iq.fu_full::FloatCvt                    0      0.00%     21.78% # attempts to use FU when none available
system.cpu1.iq.fu_full::FloatMult                   0      0.00%     21.78% # attempts to use FU when none available
system.cpu1.iq.fu_full::FloatMultAcc                0      0.00%     21.78% # attempts to use FU when none available
system.cpu1.iq.fu_full::FloatDiv                    0      0.00%     21.78% # attempts to use FU when none available
system.cpu1.iq.fu_full::FloatMisc                   0      0.00%     21.78% # attempts to use FU when none available
system.cpu1.iq.fu_full::FloatSqrt                   0      0.00%     21.78% # attempts to use FU when none available
system.cpu1.iq.fu_full::SimdAdd                     0      0.00%     21.78% # attempts to use FU when none available
system.cpu1.iq.fu_full::SimdAddAcc                  0      0.00%     21.78% # attempts to use FU when none available
system.cpu1.iq.fu_full::SimdAlu                     0      0.00%     21.78% # attempts to use FU when none available
system.cpu1.iq.fu_full::SimdCmp                     0      0.00%     21.78% # attempts to use FU when none available
system.cpu1.iq.fu_full::SimdCvt                     0      0.00%     21.78% # attempts to use FU when none available
system.cpu1.iq.fu_full::SimdMisc                    0      0.00%     21.78% # attempts to use FU when none available
system.cpu1.iq.fu_full::SimdMult                    0      0.00%     21.78% # attempts to use FU when none available
system.cpu1.iq.fu_full::SimdMultAcc                 0      0.00%     21.78% # attempts to use FU when none available
system.cpu1.iq.fu_full::SimdShift                   0      0.00%     21.78% # attempts to use FU when none available
system.cpu1.iq.fu_full::SimdShiftAcc                0      0.00%     21.78% # attempts to use FU when none available
system.cpu1.iq.fu_full::SimdDiv                     0      0.00%     21.78% # attempts to use FU when none available
system.cpu1.iq.fu_full::SimdSqrt                    0      0.00%     21.78% # attempts to use FU when none available
system.cpu1.iq.fu_full::SimdFloatAdd                0      0.00%     21.78% # attempts to use FU when none available
system.cpu1.iq.fu_full::SimdFloatAlu                0      0.00%     21.78% # attempts to use FU when none available
system.cpu1.iq.fu_full::SimdFloatCmp                0      0.00%     21.78% # attempts to use FU when none available
system.cpu1.iq.fu_full::SimdFloatCvt                0      0.00%     21.78% # attempts to use FU when none available
system.cpu1.iq.fu_full::SimdFloatDiv                0      0.00%     21.78% # attempts to use FU when none available
system.cpu1.iq.fu_full::SimdFloatMisc               0      0.00%     21.78% # attempts to use FU when none available
system.cpu1.iq.fu_full::SimdFloatMult               0      0.00%     21.78% # attempts to use FU when none available
system.cpu1.iq.fu_full::SimdFloatMultAcc            0      0.00%     21.78% # attempts to use FU when none available
system.cpu1.iq.fu_full::SimdFloatSqrt               0      0.00%     21.78% # attempts to use FU when none available
system.cpu1.iq.fu_full::SimdReduceAdd               0      0.00%     21.78% # attempts to use FU when none available
system.cpu1.iq.fu_full::SimdReduceAlu               0      0.00%     21.78% # attempts to use FU when none available
system.cpu1.iq.fu_full::SimdReduceCmp               0      0.00%     21.78% # attempts to use FU when none available
system.cpu1.iq.fu_full::SimdFloatReduceAdd            0      0.00%     21.78% # attempts to use FU when none available
system.cpu1.iq.fu_full::SimdFloatReduceCmp            0      0.00%     21.78% # attempts to use FU when none available
system.cpu1.iq.fu_full::SimdAes                     0      0.00%     21.78% # attempts to use FU when none available
system.cpu1.iq.fu_full::SimdAesMix                  0      0.00%     21.78% # attempts to use FU when none available
system.cpu1.iq.fu_full::SimdSha1Hash                0      0.00%     21.78% # attempts to use FU when none available
system.cpu1.iq.fu_full::SimdSha1Hash2               0      0.00%     21.78% # attempts to use FU when none available
system.cpu1.iq.fu_full::SimdSha256Hash              0      0.00%     21.78% # attempts to use FU when none available
system.cpu1.iq.fu_full::SimdSha256Hash2             0      0.00%     21.78% # attempts to use FU when none available
system.cpu1.iq.fu_full::SimdShaSigma2               0      0.00%     21.78% # attempts to use FU when none available
system.cpu1.iq.fu_full::SimdShaSigma3               0      0.00%     21.78% # attempts to use FU when none available
system.cpu1.iq.fu_full::SimdPredAlu                 0      0.00%     21.78% # attempts to use FU when none available
system.cpu1.iq.fu_full::MemRead               1814188     62.79%     84.57% # attempts to use FU when none available
[...]
system.cpu1.dcache.ReadReq_accesses::total    154014308                       # number of ReadReq accesses(hits+misses)
system.cpu1.dcache.ReadReq_miss_rate::.cpu1.data     0.296777                       # miss rate for ReadReq accesses
system.cpu1.dcache.ReadReq_miss_rate::total     0.296777                       # miss rate for ReadReq accesses
system.cpu1.dcache.ReadReq_avg_miss_latency::.cpu1.data 77904.632690                       # average ReadReq miss latency
system.cpu1.dcache.ReadReq_avg_miss_latency::total 77904.632690                       # average ReadReq miss latency
system.cpu1.dcache.ReadReq_mshr_hits::.cpu1.data     31451221                       # number of ReadReq MSHR hits
system.cpu1.dcache.ReadReq_mshr_hits::total     31451221                       # number of ReadReq MSHR hits
system.cpu1.dcache.ReadReq_mshr_misses::.cpu1.data     14256648                       # number of ReadReq MSHR misses
system.cpu1.dcache.ReadReq_mshr_misses::total     14256648                       # number of ReadReq MSHR misses
system.cpu1.dcache.ReadReq_mshr_miss_latency::.cpu1.data 1409079366500                       # number of ReadReq MSHR miss cycles
system.cpu1.dcache.ReadReq_mshr_miss_latency::total 1409079366500                       # number of ReadReq MSHR miss cycles
system.cpu1.dcache.ReadReq_mshr_miss_rate::.cpu1.data     0.092567                       # mshr miss rate for ReadReq accesses
system.cpu1.dcache.ReadReq_mshr_miss_rate::total     0.092567                       # mshr miss rate for ReadReq accesses
system.cpu1.dcache.ReadReq_avg_mshr_miss_latency::.cpu1.data 98836.652662                       # average ReadReq mshr miss latency
system.cpu1.dcache.ReadReq_avg_mshr_miss_latency::total 98836.652662                       # average ReadReq mshr miss latency
system.cpu1.dcache.WriteReq_hits::.cpu1.data      5426732                       # number of WriteReq hits
system.cpu1.dcache.WriteReq_hits::total       5426732                       # number of WriteReq hits
system.cpu1.dcache.WriteReq_misses::.cpu1.data      2310774                       # number of WriteReq misses
system.cpu1.dcache.WriteReq_misses::total      2310774                       # number of WriteReq misses
system.cpu1.dcache.WriteReq_miss_latency::.cpu1.data 160691721907                       # number of WriteReq miss cycles
system.cpu1.dcache.WriteReq_miss_latency::total 160691721907                       # number of WriteReq miss cycles
system.cpu1.dcache.WriteReq_accesses::.cpu1.data      7737506                       # number of WriteReq accesses(hits+misses)
system.cpu1.dcache.WriteReq_accesses::total      7737506                       # number of WriteReq accesses(hits+misses)
system.cpu1.dcache.WriteReq_miss_rate::.cpu1.data     0.298646                       # miss rate for WriteReq accesses
system.cpu1.dcache.WriteReq_miss_rate::total     0.298646                       # miss rate for WriteReq accesses
system.cpu1.dcache.WriteReq_avg_miss_latency::.cpu1.data 69540.215489                       # average WriteReq miss latency
system.cpu1.dcache.WriteReq_avg_miss_latency::total 69540.215489                       # average WriteReq miss latency
system.cpu1.dcache.WriteReq_mshr_hits::.cpu1.data      2094396                       # number of WriteReq MSHR hits
system.cpu1.dcache.WriteReq_mshr_hits::total      2094396                       # number of WriteReq MSHR hits
system.cpu1.dcache.WriteReq_mshr_misses::.cpu1.data       216378                       # number of WriteReq MSHR misses
system.cpu1.dcache.WriteReq_mshr_misses::total       216378                       # number of WriteReq MSHR misses
system.cpu1.dcache.WriteReq_mshr_miss_latency::.cpu1.data  14599187912                       # number of WriteReq MSHR miss cycles
system.cpu1.dcache.WriteReq_mshr_miss_latency::total  14599187912                       # number of WriteReq MSHR miss cycles
system.cpu1.dcache.WriteReq_mshr_miss_rate::.cpu1.data     0.027965                       # mshr miss rate for WriteReq accesses
system.cpu1.dcache.WriteReq_mshr_miss_rate::total     0.027965                       # mshr miss rate for WriteReq accesses
system.cpu1.dcache.WriteReq_avg_mshr_miss_latency::.cpu1.data 67470.759098                       # average WriteReq mshr miss latency
system.cpu1.dcache.WriteReq_avg_mshr_miss_latency::total 67470.759098                       # average WriteReq mshr miss latency
system.cpu1.dcache.LoadLockedReq_hits::.cpu1.data         1243                       # number of LoadLockedReq hits
system.cpu1.dcache.LoadLockedReq_hits::total         1243                       # number of LoadLockedReq hits
system.cpu1.dcache.LoadLockedReq_misses::.cpu1.data          301                       # number of LoadLockedReq misses
system.cpu1.dcache.LoadLockedReq_misses::total          301                       # number of LoadLockedReq misses
system.cpu1.dcache.LoadLockedReq_miss_latency::.cpu1.data     22236000                       # number of LoadLockedReq miss cycles
system.cpu1.dcache.LoadLockedReq_miss_latency::total     22236000                       # number of LoadLockedReq miss cycles
system.cpu1.dcache.LoadLockedReq_accesses::.cpu1.data         1544                       # number of LoadLockedReq accesses(hits+misses)
system.cpu1.dcache.LoadLockedReq_accesses::total         1544                       # number of LoadLockedReq accesses(hits+misses)
system.cpu1.dcache.LoadLockedReq_miss_rate::.cpu1.data     0.194948                       # miss rate for LoadLockedReq accesses
system.cpu1.dcache.LoadLockedReq_miss_rate::total     0.194948                       # miss rate for LoadLockedReq accesses
system.cpu1.dcache.LoadLockedReq_avg_miss_latency::.cpu1.data 73873.754153                       # average LoadLockedReq miss latency
system.cpu1.dcache.LoadLockedReq_avg_miss_latency::total 73873.754153                       # average LoadLockedReq miss latency
system.cpu1.dcache.LoadLockedReq_mshr_hits::.cpu1.data          139                       # number of LoadLockedReq MSHR hits
system.cpu1.dcache.LoadLockedReq_mshr_hits::total          139                       # number of LoadLockedReq MSHR hits
system.cpu1.dcache.LoadLockedReq_mshr_misses::.cpu1.data          162                       # number of LoadLockedReq MSHR misses
system.cpu1.dcache.LoadLockedReq_mshr_misses::total          162                       # number of LoadLockedReq MSHR misses
system.cpu1.dcache.LoadLockedReq_mshr_miss_latency::.cpu1.data     12476500                       # number of LoadLockedReq MSHR miss cycles
system.cpu1.dcache.LoadLockedReq_mshr_miss_latency::total     12476500                       # number of LoadLockedReq MSHR miss cycles
system.cpu1.dcache.LoadLockedReq_mshr_miss_rate::.cpu1.data     0.104922                       # mshr miss rate for LoadLockedReq accesses
system.cpu1.dcache.LoadLockedReq_mshr_miss_rate::total     0.104922                       # mshr miss rate for LoadLockedReq accesses
system.cpu1.dcache.LoadLockedReq_avg_mshr_miss_latency::.cpu1.data 77015.432099                       # average LoadLockedReq mshr miss latency
system.cpu1.dcache.LoadLockedReq_avg_mshr_miss_latency::total 77015.432099                       # average LoadLockedReq mshr miss latency
system.cpu1.dcache.StoreCondReq_hits::.cpu1.data          964                       # number of StoreCondReq hits
system.cpu1.dcache.StoreCondReq_hits::total          964                       # number of StoreCondReq hits
system.cpu1.dcache.StoreCondReq_misses::.cpu1.data          473                       # number of StoreCondReq misses
system.cpu1.dcache.StoreCondReq_misses::total          473                       # number of StoreCondReq misses
system.cpu1.dcache.StoreCondReq_miss_latency::.cpu1.data      4638500                       # number of StoreCondReq miss cycles
system.cpu1.dcache.StoreCondReq_miss_latency::total      4638500                       # number of StoreCondReq miss cycles
system.cpu1.dcache.StoreCondReq_accesses::.cpu1.data         1437                       # number of StoreCondReq accesses(hits+misses)
system.cpu1.dcache.StoreCondReq_accesses::total         1437                       # number of StoreCondReq accesses(hits+misses)
system.cpu1.dcache.StoreCondReq_miss_rate::.cpu1.data     0.329158                       # miss rate for StoreCondReq accesses
system.cpu1.dcache.StoreCondReq_miss_rate::total     0.329158                       # miss rate for StoreCondReq accesses
system.cpu1.dcache.StoreCondReq_avg_miss_latency::.cpu1.data  9806.553911                       # average StoreCondReq miss latency
system.cpu1.dcache.StoreCondReq_avg_miss_latency::total  9806.553911                       # average StoreCondReq miss latency
system.cpu1.dcache.StoreCondReq_mshr_misses::.cpu1.data          473                       # number of StoreCondReq MSHR misses
system.cpu1.dcache.StoreCondReq_mshr_misses::total          473                       # number of StoreCondReq MSHR misses
system.cpu1.dcache.StoreCondReq_mshr_miss_latency::.cpu1.data      4165500                       # number of StoreCondReq MSHR miss cycles
system.cpu1.dcache.StoreCondReq_mshr_miss_latency::total      4165500                       # number of StoreCondReq MSHR miss cycles
system.cpu1.dcache.StoreCondReq_mshr_miss_rate::.cpu1.data     0.329158                       # mshr miss rate for StoreCondReq accesses
system.cpu1.dcache.StoreCondReq_mshr_miss_rate::total     0.329158                       # mshr miss rate for StoreCondReq accesses
system.cpu1.dcache.StoreCondReq_avg_mshr_miss_latency::.cpu1.data  8806.553911                       # average StoreCondReq mshr miss latency
system.cpu1.dcache.StoreCondReq_avg_mshr_miss_latency::total  8806.553911                       # average StoreCondReq mshr miss latency
system.cpu1.dcache.SwapReq_hits::.cpu1.data          551                       # number of SwapReq hits
system.cpu1.dcache.SwapReq_hits::total            551                       # number of SwapReq hits
system.cpu1.dcache.SwapReq_misses::.cpu1.data          274                       # number of SwapReq misses
system.cpu1.dcache.SwapReq_misses::total          274                       # number of SwapReq misses
system.cpu1.dcache.SwapReq_miss_latency::.cpu1.data      1464500                       # number of SwapReq miss cycles
system.cpu1.dcache.SwapReq_miss_latency::total      1464500                       # number of SwapReq miss cycles
system.cpu1.dcache.SwapReq_accesses::.cpu1.data          825                       # number of SwapReq accesses(hits+misses)
system.cpu1.dcache.SwapReq_accesses::total          825                       # number of SwapReq accesses(hits+misses)
system.cpu1.dcache.SwapReq_miss_rate::.cpu1.data     0.332121                       # miss rate for SwapReq accesses
system.cpu1.dcache.SwapReq_miss_rate::total     0.332121                       # miss rate for SwapReq accesses
system.cpu1.dcache.SwapReq_avg_miss_latency::.cpu1.data  5344.890511                       # average SwapReq miss latency
system.cpu1.dcache.SwapReq_avg_miss_latency::total  5344.890511                       # average SwapReq miss latency
system.cpu1.dcache.SwapReq_mshr_misses::.cpu1.data          274                       # number of SwapReq MSHR misses
system.cpu1.dcache.SwapReq_mshr_misses::total          274                       # number of SwapReq MSHR misses
system.cpu1.dcache.SwapReq_mshr_miss_latency::.cpu1.data      1190500                       # number of SwapReq MSHR miss cycles
system.cpu1.dcache.SwapReq_mshr_miss_latency::total      1190500                       # number of SwapReq MSHR miss cycles
system.cpu1.dcache.SwapReq_mshr_miss_rate::.cpu1.data     0.332121                       # mshr miss rate for SwapReq accesses
system.cpu1.dcache.SwapReq_mshr_miss_rate::total     0.332121                       # mshr miss rate for SwapReq accesses
system.cpu1.dcache.SwapReq_avg_mshr_miss_latency::.cpu1.data  4344.890511                       # average SwapReq mshr miss latency
system.cpu1.dcache.SwapReq_avg_mshr_miss_latency::total  4344.890511                       # average SwapReq mshr miss latency
system.cpu1.dcache.tags.pwrStateResidencyTicks::UNDEFINED 1914919104500                       # Cumulative time (in ticks) in various power states
system.cpu1.dcache.tags.tagsinuse           31.818882                       # Cycle average of tags in use
system.cpu1.dcache.tags.total_refs          128213167                       # Total number of references to valid blocks.
system.cpu1.dcache.tags.sampled_refs         14472742                       # Sample count of references to valid blocks.
system.cpu1.dcache.tags.avg_refs             8.858941                       # Average number of references to valid blocks.
system.cpu1.dcache.tags.warmup_cycle                0                       # Cycle when the warmup percentage was hit.
system.cpu1.dcache.tags.occ_blocks::.cpu1.data    31.818882                       # Average occupied blocks per requestor
system.cpu1.dcache.tags.occ_percent::.cpu1.data     0.994340                       # Average percentage of cache occupancy
system.cpu1.dcache.tags.occ_percent::total     0.994340                       # Average percentage of cache occupancy
system.cpu1.dcache.tags.occ_task_id_blocks::1024           29                       # Occupied blocks per task id
system.cpu1.dcache.tags.age_task_id_blocks_1024::1           29                       # Occupied blocks per task id
system.cpu1.dcache.tags.occ_task_id_percent::1024     0.906250                       # Percentage of cache occupancy per task id
system.cpu1.dcache.tags.tag_accesses        337983953                       # Number of tag accesses
system.cpu1.dcache.tags.data_accesses       337983953                       # Number of data accesses
system.cpu_clk_domain.clock                       500                       # Clock period in ticks
system.tol2bus.pwrStateResidencyTicks::UNDEFINED 1914919104500                       # Cumulative time (in ticks) in various power states
system.tol2bus.trans_dist::ReadResp          67554974                       # Transaction distribution
system.tol2bus.trans_dist::WritebackDirty     10231768                       # Transaction distribution
system.tol2bus.trans_dist::WritebackClean     62797407                       # Transaction distribution
system.tol2bus.trans_dist::CleanEvict       145011249                       # Transaction distribution
system.tol2bus.trans_dist::HardPFReq         44527713                       # Transaction distribution
system.tol2bus.trans_dist::UpgradeReq            2377                       # Transaction distribution
system.tol2bus.trans_dist::SCUpgradeReq           885                       # Transaction distribution
system.tol2bus.trans_dist::UpgradeResp           3262                       # Transaction distribution
system.tol2bus.trans_dist::ReadExReq           451180                       # Transaction distribution
system.tol2bus.trans_dist::ReadExResp          451180                       # Transaction distribution
system.tol2bus.trans_dist::ReadCleanReq         26727                       # Transaction distribution
system.tol2bus.trans_dist::ReadSharedReq     67528247                       # Transaction distribution
system.tol2bus.pkt_count_system.cpu0.icache.mem_side::system.l2.cpu_side        64941                       # Packet count per connected master and slave (bytes)
system.tol2bus.pkt_count_system.cpu0.dcache.mem_side::system.l2.cpu_side    160508281                       # Packet count per connected master and slave (bytes)
system.tol2bus.pkt_count_system.cpu1.icache.mem_side::system.l2.cpu_side        15240                       # Packet count per connected master and slave (bytes)
system.tol2bus.pkt_count_system.cpu1.dcache.mem_side::system.l2.cpu_side     43402362                       # Packet count per connected master and slave (bytes)
system.tol2bus.pkt_count::total             203990824                       # Packet count per connected master and slave (bytes)
system.tol2bus.pkt_size_system.cpu0.icache.mem_side::system.l2.cpu_side      2770816                       # Cumulative packet size per connected master and slave (bytes)
system.tol2bus.pkt_size_system.cpu0.dcache.mem_side::system.l2.cpu_side   6847918784                       # Cumulative packet size per connected master and slave (bytes)
system.tol2bus.pkt_size_system.cpu1.icache.mem_side::system.l2.cpu_side       650240                       # Cumulative packet size per connected master and slave (bytes)
system.tol2bus.pkt_size_system.cpu1.dcache.mem_side::system.l2.cpu_side   1851397248                       # Cumulative packet size per connected master and slave (bytes)
system.tol2bus.pkt_size::total             8702737088                       # Cumulative packet size per connected master and slave (bytes)
system.tol2bus.snoops                       194596145                       # Total snoops (count)
system.tol2bus.snoopTraffic                 323523968                       # Total snoop traffic (bytes)
system.tol2bus.snoop_fanout::samples        262575275                       # Request fanout histogram
system.tol2bus.snoop_fanout::mean            0.243544                       # Request fanout histogram
system.tol2bus.snoop_fanout::stdev           0.430256                       # Request fanout histogram
system.tol2bus.snoop_fanout::underflows             0      0.00%      0.00% # Request fanout histogram
system.tol2bus.snoop_fanout::0              198743503     75.69%     75.69% # Request fanout histogram
system.tol2bus.snoop_fanout::1               63714977     24.27%     99.96% # Request fanout histogram
system.tol2bus.snoop_fanout::2                 116795      0.04%    100.00% # Request fanout histogram
system.tol2bus.snoop_fanout::3                      0      0.00%    100.00% # Request fanout histogram
system.tol2bus.snoop_fanout::4                      0      0.00%    100.00% # Request fanout histogram
system.tol2bus.snoop_fanout::5                      0      0.00%    100.00% # Request fanout histogram
system.tol2bus.snoop_fanout::6                      0      0.00%    100.00% # Request fanout histogram
system.tol2bus.snoop_fanout::7                      0      0.00%    100.00% # Request fanout histogram
system.tol2bus.snoop_fanout::8                      0      0.00%    100.00% # Request fanout histogram
system.tol2bus.snoop_fanout::overflows              0      0.00%    100.00% # Request fanout histogram
system.tol2bus.snoop_fanout::min_value              0                       # Request fanout histogram
system.tol2bus.snoop_fanout::max_value              2                       # Request fanout histogram
system.tol2bus.snoop_fanout::total          262575275                       # Request fanout histogram
system.tol2bus.reqLayer0.occupancy       136008498754                       # Layer occupancy (ticks)
system.tol2bus.reqLayer0.utilization              7.1                       # Layer utilization (%)
system.tol2bus.respLayer1.occupancy       80268180274                       # Layer occupancy (ticks)
system.tol2bus.respLayer1.utilization             4.2                       # Layer utilization (%)
system.tol2bus.respLayer0.occupancy          32497945                       # Layer occupancy (ticks)
system.tol2bus.respLayer0.utilization             0.0                       # Layer utilization (%)
system.tol2bus.respLayer3.occupancy       21714271325                       # Layer occupancy (ticks)
system.tol2bus.respLayer3.utilization             1.1                       # Layer utilization (%)
system.tol2bus.respLayer2.occupancy           7632475                       # Layer occupancy (ticks)
system.tol2bus.respLayer2.utilization             0.0                       # Layer utilization (%)

---------- End Simulation Statistics   ----------
