
---------- Begin Simulation Statistics ----------
final_tick                               666346483000                       # Number of ticks from beginning of simulation (restored from checkpoints and never reset)
host_inst_rate                                  77679                       # Simulator instruction rate (inst/s)
host_mem_usage                                 701860                       # Number of bytes of host memory used
host_op_rate                                    77912                       # Simulator op (including micro ops) rate (op/s)
host_seconds                                  8767.27                       # Real time elapsed on the host
host_tick_rate                               76003899                       # Simulator tick rate (ticks/s)
sim_freq                                 1000000000000                       # Frequency of simulated ticks
sim_insts                                   681034897                       # Number of instructions simulated
sim_ops                                     683072511                       # Number of ops (including micro ops) simulated
sim_seconds                                  0.666346                       # Number of seconds simulated
sim_ticks                                666346483000                       # Number of ticks simulated
system.cpu0.branchPred.BTBCorrect                   0                       # Number of correct BTB predictions (this stat may not work properly.
system.cpu0.branchPred.BTBHitPct            83.935714                       # BTB Hit Percentage
system.cpu0.branchPred.BTBHits               85208342                       # Number of BTB hits
system.cpu0.branchPred.BTBLookups           101516194                       # Number of BTB lookups
system.cpu0.branchPred.RASInCorrect                 0                       # Number of incorrect RAS predictions.
system.cpu0.branchPred.condIncorrect          8677273                       # Number of conditional branches incorrect
system.cpu0.branchPred.condPredicted        132509676                       # Number of conditional branches predicted
system.cpu0.branchPred.indirectHits          14453331                       # Number of indirect target hits.
system.cpu0.branchPred.indirectLookups       14580969                       # Number of indirect predictor lookups.
system.cpu0.branchPred.indirectMisses          127638                       # Number of indirect misses.
system.cpu0.branchPred.lookups              171023733                       # Number of BP lookups
system.cpu0.branchPred.usedRAS                      0                       # Number of times the RAS was used to get a target.
system.cpu0.branchPredindirectMispredicted      1082927                       # Number of mispredicted indirect branches.
system.cpu0.commit.amos                       1018218                       # Number of atomic instructions committed
system.cpu0.commit.branchMispredicts          5529993                       # The number of times a branch was mispredicted
system.cpu0.commit.branches                 151202355                       # Number of branches committed
system.cpu0.commit.bw_lim_events             20003312                       # number cycles where commit BW limit reached
system.cpu0.commit.commitNonSpecStalls        3058532                       # The number of times commit has been forced to stall to communicate backwards
system.cpu0.commit.commitSquashedInsts       87078998                       # The number of squashed insts skipped by commit
system.cpu0.commit.committedInsts           623641992                       # Number of instructions committed
system.cpu0.commit.committedOps             624661496                       # Number of ops (including micro ops) committed
system.cpu0.commit.committed_per_cycle::samples   1126518846                       # Number of insts commited each cycle
system.cpu0.commit.committed_per_cycle::mean     0.554506                       # Number of insts commited each cycle
system.cpu0.commit.committed_per_cycle::stdev     1.360209                       # Number of insts commited each cycle
system.cpu0.commit.committed_per_cycle::underflows            0      0.00%      0.00% # Number of insts commited each cycle
system.cpu0.commit.committed_per_cycle::0    836325869     74.24%     74.24% # Number of insts commited each cycle
system.cpu0.commit.committed_per_cycle::1    168844210     14.99%     89.23% # Number of insts commited each cycle
system.cpu0.commit.committed_per_cycle::2     44357455      3.94%     93.17% # Number of insts commited each cycle
system.cpu0.commit.committed_per_cycle::3     33617500      2.98%     96.15% # Number of insts commited each cycle
system.cpu0.commit.committed_per_cycle::4     15485048      1.37%     97.52% # Number of insts commited each cycle
system.cpu0.commit.committed_per_cycle::5      4665231      0.41%     97.94% # Number of insts commited each cycle
system.cpu0.commit.committed_per_cycle::6      1584514      0.14%     98.08% # Number of insts commited each cycle
system.cpu0.commit.committed_per_cycle::7      1635707      0.15%     98.22% # Number of insts commited each cycle
system.cpu0.commit.committed_per_cycle::8     20003312      1.78%    100.00% # Number of insts commited each cycle
system.cpu0.commit.committed_per_cycle::overflows            0      0.00%    100.00% # Number of insts commited each cycle
system.cpu0.commit.committed_per_cycle::min_value            0                       # Number of insts commited each cycle
system.cpu0.commit.committed_per_cycle::max_value            8                       # Number of insts commited each cycle
system.cpu0.commit.committed_per_cycle::total   1126518846                       # Number of insts commited each cycle
system.cpu0.commit.fp_insts                        50                       # Number of committed floating point instructions.
system.cpu0.commit.function_calls            13130335                       # Number of function calls committed.
system.cpu0.commit.int_insts                604957505                       # Number of committed integer instructions.
system.cpu0.commit.loads                    190154143                       # Number of loads committed
system.cpu0.commit.membars                    2037608                       # Number of memory barriers committed
system.cpu0.commit.op_class_0::No_OpClass      2037614      0.33%      0.33% # Class of committed instruction
system.cpu0.commit.op_class_0::IntAlu       347111716     55.57%     55.89% # Class of committed instruction
system.cpu0.commit.op_class_0::IntMult        4400507      0.70%     56.60% # Class of committed instruction
system.cpu0.commit.op_class_0::IntDiv         1542070      0.25%     56.85% # Class of committed instruction
system.cpu0.commit.op_class_0::FloatAdd             0      0.00%     56.85% # Class of committed instruction
system.cpu0.commit.op_class_0::FloatCmp             4      0.00%     56.85% # Class of committed instruction
system.cpu0.commit.op_class_0::FloatCvt            12      0.00%     56.85% # Class of committed instruction
system.cpu0.commit.op_class_0::FloatMult            0      0.00%     56.85% # Class of committed instruction
system.cpu0.commit.op_class_0::FloatMultAcc            0      0.00%     56.85% # Class of committed instruction
system.cpu0.commit.op_class_0::FloatDiv             2      0.00%     56.85% # Class of committed instruction
system.cpu0.commit.op_class_0::FloatMisc            4      0.00%     56.85% # Class of committed instruction
system.cpu0.commit.op_class_0::FloatSqrt            0      0.00%     56.85% # Class of committed instruction
system.cpu0.commit.op_class_0::SimdAdd              0      0.00%     56.85% # Class of committed instruction
system.cpu0.commit.op_class_0::SimdAddAcc            0      0.00%     56.85% # Class of committed instruction
system.cpu0.commit.op_class_0::SimdAlu              0      0.00%     56.85% # Class of committed instruction
system.cpu0.commit.op_class_0::SimdCmp              0      0.00%     56.85% # Class of committed instruction
system.cpu0.commit.op_class_0::SimdCvt              0      0.00%     56.85% # Class of committed instruction
system.cpu0.commit.op_class_0::SimdMisc             0      0.00%     56.85% # Class of committed instruction
system.cpu0.commit.op_class_0::SimdMult             0      0.00%     56.85% # Class of committed instruction
system.cpu0.commit.op_class_0::SimdMultAcc            0      0.00%     56.85% # Class of committed instruction
system.cpu0.commit.op_class_0::SimdShift            0      0.00%     56.85% # Class of committed instruction
system.cpu0.commit.op_class_0::SimdShiftAcc            0      0.00%     56.85% # Class of committed instruction
system.cpu0.commit.op_class_0::SimdDiv              0      0.00%     56.85% # Class of committed instruction
system.cpu0.commit.op_class_0::SimdSqrt             0      0.00%     56.85% # Class of committed instruction
system.cpu0.commit.op_class_0::SimdFloatAdd            0      0.00%     56.85% # Class of committed instruction
system.cpu0.commit.op_class_0::SimdFloatAlu            0      0.00%     56.85% # Class of committed instruction
system.cpu0.commit.op_class_0::SimdFloatCmp            0      0.00%     56.85% # Class of committed instruction
system.cpu0.commit.op_class_0::SimdFloatCvt            0      0.00%     56.85% # Class of committed instruction
system.cpu0.commit.op_class_0::SimdFloatDiv            0      0.00%     56.85% # Class of committed instruction
system.cpu0.commit.op_class_0::SimdFloatMisc            0      0.00%     56.85% # Class of committed instruction
system.cpu0.commit.op_class_0::SimdFloatMult            0      0.00%     56.85% # Class of committed instruction
system.cpu0.commit.op_class_0::SimdFloatMultAcc            0      0.00%     56.85% # Class of committed instruction
system.cpu0.commit.op_class_0::SimdFloatSqrt            0      0.00%     56.85% # Class of committed instruction
system.cpu0.commit.op_class_0::SimdReduceAdd            0      0.00%     56.85% # Class of committed instruction
system.cpu0.commit.op_class_0::SimdReduceAlu            0      0.00%     56.85% # Class of committed instruction
system.cpu0.commit.op_class_0::SimdReduceCmp            0      0.00%     56.85% # Class of committed instruction
system.cpu0.commit.op_class_0::SimdFloatReduceAdd            0      0.00%     56.85% # Class of committed instruction
system.cpu0.commit.op_class_0::SimdFloatReduceCmp            0      0.00%     56.85% # Class of committed instruction
system.cpu0.commit.op_class_0::SimdAes              0      0.00%     56.85% # Class of committed instruction
system.cpu0.commit.op_class_0::SimdAesMix            0      0.00%     56.85% # Class of committed instruction
system.cpu0.commit.op_class_0::SimdSha1Hash            0      0.00%     56.85% # Class of committed instruction
system.cpu0.commit.op_class_0::SimdSha1Hash2            0      0.00%     56.85% # Class of committed instruction
system.cpu0.commit.op_class_0::SimdSha256Hash            0      0.00%     56.85% # Class of committed instruction
system.cpu0.commit.op_class_0::SimdSha256Hash2            0      0.00%     56.85% # Class of committed instruction
system.cpu0.commit.op_class_0::SimdShaSigma2            0      0.00%     56.85% # Class of committed instruction
system.cpu0.commit.op_class_0::SimdShaSigma3            0      0.00%     56.85% # Class of committed instruction
system.cpu0.commit.op_class_0::SimdPredAlu            0      0.00%     56.85% # Class of committed instruction
system.cpu0.commit.op_class_0::MemRead      191172353     30.60%     87.45% # Class of committed instruction
system.cpu0.commit.op_class_0::MemWrite      78397186     12.55%    100.00% # Class of committed instruction
system.cpu0.commit.op_class_0::FloatMemRead            8      0.00%    100.00% # Class of committed instruction
system.cpu0.commit.op_class_0::FloatMemWrite           20      0.00%    100.00% # Class of committed instruction
system.cpu0.commit.op_class_0::IprAccess            0      0.00%    100.00% # Class of committed instruction
system.cpu0.commit.op_class_0::InstPrefetch            0      0.00%    100.00% # Class of committed instruction
system.cpu0.commit.op_class_0::total        624661496                       # Class of committed instruction
system.cpu0.commit.refs                     269569567                       # Number of memory references committed
system.cpu0.commit.swp_count                        0                       # Number of s/w prefetches committed
system.cpu0.commit.vec_insts                        0                       # Number of committed Vector instructions.
system.cpu0.committedInsts                  623641992                       # Number of Instructions Simulated
system.cpu0.committedOps                    624661496                       # Number of Ops (including micro ops) Simulated
system.cpu0.cpi                              2.121389                       # CPI: Cycles Per Instruction
system.cpu0.cpi_total                        2.121389                       # CPI: Total CPI of All Threads
system.cpu0.decode.BlockedCycles            216092536                       # Number of cycles decode is blocked
system.cpu0.decode.BranchMispred              3155872                       # Number of times decode detected a branch misprediction
system.cpu0.decode.BranchResolved            83472823                       # Number of times decode resolved a branch
system.cpu0.decode.DecodedInsts             723998308                       # Number of instructions handled by decode
system.cpu0.decode.IdleCycles               407801689                       # Number of cycles decode is idle
system.cpu0.decode.RunCycles                507638127                       # Number of cycles decode is running
system.cpu0.decode.SquashCycles               5538942                       # Number of cycles decode is squashing
system.cpu0.decode.SquashedInsts             10042754                       # Number of squashed instructions handled by decode
system.cpu0.decode.UnblockCycles              4249517                       # Number of cycles decode is unblocking
system.cpu0.dtb.accesses                            0                       # DTB accesses
system.cpu0.dtb.hits                                0                       # DTB hits
system.cpu0.dtb.misses                              0                       # DTB misses
system.cpu0.dtb.read_accesses                       0                       # DTB read accesses
system.cpu0.dtb.read_hits                           0                       # DTB read hits
system.cpu0.dtb.read_misses                         0                       # DTB read misses
system.cpu0.dtb.write_accesses                      0                       # DTB write accesses
system.cpu0.dtb.write_hits                          0                       # DTB write hits
system.cpu0.dtb.write_misses                        0                       # DTB write misses
system.cpu0.fetch.Branches                  171023733                       # Number of branches that fetch encountered
system.cpu0.fetch.CacheLines                128773247                       # Number of cache lines fetched
system.cpu0.fetch.Cycles                    724767386                       # Number of cycles fetch has run and was not squashing or blocked
system.cpu0.fetch.IcacheSquashes              2926766                       # Number of outstanding Icache misses that were squashed
system.cpu0.fetch.IcacheWaitRetryStallCycles           91                       # Number of stall cycles due to full MSHR
system.cpu0.fetch.Insts                     743315519                       # Number of instructions fetch has processed
system.cpu0.fetch.MiscStallCycles                 109                       # Number of cycles fetch has spent waiting on interrupts, or bad addresses, or out of MSHRs
system.cpu0.fetch.PendingTrapStallCycles          611                       # Number of stall cycles due to pending traps
system.cpu0.fetch.SquashCycles               17372638                       # Number of cycles fetch has spent squashing
system.cpu0.fetch.branchRate                 0.129271                       # Number of branch fetches per cycle
system.cpu0.fetch.icacheStallCycles         407866295                       # Number of cycles fetch is stalled on an Icache miss
system.cpu0.fetch.predictedBranches          99661673                       # Number of branches that fetch has predicted taken
system.cpu0.fetch.rate                       0.561846                       # Number of inst fetches per cycle
system.cpu0.fetch.rateDist::samples        1141320811                       # Number of instructions fetched each cycle (Total)
system.cpu0.fetch.rateDist::mean             0.652170                       # Number of instructions fetched each cycle (Total)
system.cpu0.fetch.rateDist::stdev            0.881644                       # Number of instructions fetched each cycle (Total)
system.cpu0.fetch.rateDist::underflows              0      0.00%      0.00% # Number of instructions fetched each cycle (Total)
system.cpu0.fetch.rateDist::0               604780613     52.99%     52.99% # Number of instructions fetched each cycle (Total)
system.cpu0.fetch.rateDist::1               401651926     35.19%     88.18% # Number of instructions fetched each cycle (Total)
system.cpu0.fetch.rateDist::2                83226124      7.29%     95.47% # Number of instructions fetched each cycle (Total)
system.cpu0.fetch.rateDist::3                39043795      3.42%     98.89% # Number of instructions fetched each cycle (Total)
system.cpu0.fetch.rateDist::4                 6510613      0.57%     99.46% # Number of instructions fetched each cycle (Total)
system.cpu0.fetch.rateDist::5                 4613547      0.40%     99.87% # Number of instructions fetched each cycle (Total)
system.cpu0.fetch.rateDist::6                  472455      0.04%     99.91% # Number of instructions fetched each cycle (Total)
system.cpu0.fetch.rateDist::7                 1018776      0.09%    100.00% # Number of instructions fetched each cycle (Total)
system.cpu0.fetch.rateDist::8                    2962      0.00%    100.00% # Number of instructions fetched each cycle (Total)
system.cpu0.fetch.rateDist::overflows               0      0.00%    100.00% # Number of instructions fetched each cycle (Total)
system.cpu0.fetch.rateDist::min_value               0                       # Number of instructions fetched each cycle (Total)
system.cpu0.fetch.rateDist::max_value               8                       # Number of instructions fetched each cycle (Total)
system.cpu0.fetch.rateDist::total          1141320811                       # Number of instructions fetched each cycle (Total)
system.cpu0.fp_regfile_reads                       44                       # number of floating regfile reads
system.cpu0.fp_regfile_writes                      23                       # number of floating regfile writes
system.cpu0.idleCycles                      181666471                       # Total number of cycles that the CPU has spent unscheduled due to idling
system.cpu0.iew.branchMispredicts             5594559                       # Number of branch mispredicts detected at execute
system.cpu0.iew.exec_branches               161609401                       # Number of branches executed
system.cpu0.iew.exec_nop                            0                       # number of nop insts executed
system.cpu0.iew.exec_rate                    0.530561                       # Inst execution rate
system.cpu0.iew.exec_refs                   318128064                       # number of memory reference insts executed
system.cpu0.iew.exec_stores                  97310144                       # Number of stores executed
system.cpu0.iew.exec_swp                            0                       # number of swp insts executed
system.cpu0.iew.iewBlockCycles              167753532                       # Number of cycles IEW is blocking
system.cpu0.iew.iewDispLoadInsts            220529145                       # Number of dispatched load instructions
system.cpu0.iew.iewDispNonSpecInsts           1021156                       # Number of dispatched non-speculative instructions
system.cpu0.iew.iewDispSquashedInsts          2481598                       # Number of squashed instructions skipped by dispatch
system.cpu0.iew.iewDispStoreInsts           100551081                       # Number of dispatched store instructions
system.cpu0.iew.iewDispatchedInsts          711721546                       # Number of instructions dispatched to IQ
system.cpu0.iew.iewExecLoadInsts            220817920                       # Number of load instructions executed
system.cpu0.iew.iewExecSquashedInsts          4286506                       # Number of squashed instructions skipped in execute
system.cpu0.iew.iewExecutedInsts            701925937                       # Number of executed instructions
system.cpu0.iew.iewIQFullEvents                762065                       # Number of times the IQ has become full, causing a stall
system.cpu0.iew.iewIdleCycles                       0                       # Number of cycles IEW is idle
system.cpu0.iew.iewLSQFullEvents              7122978                       # Number of times the LSQ has become full, causing a stall
system.cpu0.iew.iewSquashCycles               5538942                       # Number of cycles IEW is squashing
system.cpu0.iew.iewUnblockCycles              9251409                       # Number of cycles IEW is unblocking
system.cpu0.iew.lsq.thread0.blockedLoads            0                       # Number of blocked loads due to partial load-store forwarding
system.cpu0.iew.lsq.thread0.cacheBlocked       201724                       # Number of times an access to memory failed due to the cache being blocked
system.cpu0.iew.lsq.thread0.forwLoads        15008916                       # Number of loads that had data forwarded from stores
system.cpu0.iew.lsq.thread0.ignoredResponses         8161                       # Number of memory responses ignored because the instruction is squashed
system.cpu0.iew.lsq.thread0.invAddrLoads            0                       # Number of loads ignored due to an invalid address
system.cpu0.iew.lsq.thread0.invAddrSwpfs            0                       # Number of software prefetches ignored due to an invalid address
system.cpu0.iew.lsq.thread0.memOrderViolation        10037                       # Number of memory ordering violations
system.cpu0.iew.lsq.thread0.rescheduledLoads      4277610                       # Number of loads that were rescheduled
system.cpu0.iew.lsq.thread0.squashedLoads     30375002                       # Number of loads squashed
system.cpu0.iew.lsq.thread0.squashedStores     21135646                       # Number of stores squashed
system.cpu0.iew.memOrderViolationEvents         10037                       # Number of memory order violations
system.cpu0.iew.predictedNotTakenIncorrect       684278                       # Number of branches that were predicted not taken incorrectly
system.cpu0.iew.predictedTakenIncorrect       4910281                       # Number of branches that were predicted taken incorrectly
system.cpu0.iew.wb_consumers                302933676                       # num instructions consuming a value
system.cpu0.iew.wb_count                    693859471                       # cumulative count of insts written-back
system.cpu0.iew.wb_fanout                    0.843416                       # average fanout of values written-back
system.cpu0.iew.wb_producers                255499156                       # num instructions producing a value
system.cpu0.iew.wb_rate                      0.524464                       # insts written-back per cycle
system.cpu0.iew.wb_sent                     693913462                       # cumulative count of insts sent to commit
system.cpu0.int_regfile_reads               865938309                       # number of integer regfile reads
system.cpu0.int_regfile_writes              441560430                       # number of integer regfile writes
system.cpu0.ipc                              0.471389                       # IPC: Instructions Per Cycle
system.cpu0.ipc_total                        0.471389                       # IPC: Total IPC of All Threads
system.cpu0.iq.FU_type_0::No_OpClass          2038565      0.29%      0.29% # Type of FU issued
system.cpu0.iq.FU_type_0::IntAlu            378500235     53.60%     53.88% # Type of FU issued
system.cpu0.iq.FU_type_0::IntMult             4405809      0.62%     54.51% # Type of FU issued
system.cpu0.iq.FU_type_0::IntDiv              1542571      0.22%     54.73% # Type of FU issued
system.cpu0.iq.FU_type_0::FloatAdd                  0      0.00%     54.73% # Type of FU issued
system.cpu0.iq.FU_type_0::FloatCmp                  4      0.00%     54.73% # Type of FU issued
system.cpu0.iq.FU_type_0::FloatCvt                 12      0.00%     54.73% # Type of FU issued
system.cpu0.iq.FU_type_0::FloatMult                 0      0.00%     54.73% # Type of FU issued
system.cpu0.iq.FU_type_0::FloatMultAcc              0      0.00%     54.73% # Type of FU issued
system.cpu0.iq.FU_type_0::FloatDiv                  2      0.00%     54.73% # Type of FU issued
system.cpu0.iq.FU_type_0::FloatMisc                 4      0.00%     54.73% # Type of FU issued
system.cpu0.iq.FU_type_0::FloatSqrt                 0      0.00%     54.73% # Type of FU issued
system.cpu0.iq.FU_type_0::SimdAdd                   0      0.00%     54.73% # Type of FU issued
system.cpu0.iq.FU_type_0::SimdAddAcc                0      0.00%     54.73% # Type of FU issued
system.cpu0.iq.FU_type_0::SimdAlu                   0      0.00%     54.73% # Type of FU issued
system.cpu0.iq.FU_type_0::SimdCmp                   0      0.00%     54.73% # Type of FU issued
system.cpu0.iq.FU_type_0::SimdCvt                   0      0.00%     54.73% # Type of FU issued
system.cpu0.iq.FU_type_0::SimdMisc                  0      0.00%     54.73% # Type of FU issued
system.cpu0.iq.FU_type_0::SimdMult                  0      0.00%     54.73% # Type of FU issued
system.cpu0.iq.FU_type_0::SimdMultAcc               0      0.00%     54.73% # Type of FU issued
system.cpu0.iq.FU_type_0::SimdShift                 0      0.00%     54.73% # Type of FU issued
system.cpu0.iq.FU_type_0::SimdShiftAcc              0      0.00%     54.73% # Type of FU issued
system.cpu0.iq.FU_type_0::SimdDiv                   0      0.00%     54.73% # Type of FU issued
system.cpu0.iq.FU_type_0::SimdSqrt                  0      0.00%     54.73% # Type of FU issued
system.cpu0.iq.FU_type_0::SimdFloatAdd              0      0.00%     54.73% # Type of FU issued
system.cpu0.iq.FU_type_0::SimdFloatAlu              0      0.00%     54.73% # Type of FU issued
system.cpu0.iq.FU_type_0::SimdFloatCmp              0      0.00%     54.73% # Type of FU issued
system.cpu0.iq.FU_type_0::SimdFloatCvt              0      0.00%     54.73% # Type of FU issued
system.cpu0.iq.FU_type_0::SimdFloatDiv              0      0.00%     54.73% # Type of FU issued
system.cpu0.iq.FU_type_0::SimdFloatMisc             0      0.00%     54.73% # Type of FU issued
system.cpu0.iq.FU_type_0::SimdFloatMult             0      0.00%     54.73% # Type of FU issued
system.cpu0.iq.FU_type_0::SimdFloatMultAcc            0      0.00%     54.73% # Type of FU issued
system.cpu0.iq.FU_type_0::SimdFloatSqrt             0      0.00%     54.73% # Type of FU issued
system.cpu0.iq.FU_type_0::SimdReduceAdd             0      0.00%     54.73% # Type of FU issued
system.cpu0.iq.FU_type_0::SimdReduceAlu             0      0.00%     54.73% # Type of FU issued
system.cpu0.iq.FU_type_0::SimdReduceCmp             0      0.00%     54.73% # Type of FU issued
system.cpu0.iq.FU_type_0::SimdFloatReduceAdd            0      0.00%     54.73% # Type of FU issued
system.cpu0.iq.FU_type_0::SimdFloatReduceCmp            0      0.00%     54.73% # Type of FU issued
system.cpu0.iq.FU_type_0::SimdAes                   0      0.00%     54.73% # Type of FU issued
system.cpu0.iq.FU_type_0::SimdAesMix                0      0.00%     54.73% # Type of FU issued
system.cpu0.iq.FU_type_0::SimdSha1Hash              0      0.00%     54.73% # Type of FU issued
system.cpu0.iq.FU_type_0::SimdSha1Hash2             0      0.00%     54.73% # Type of FU issued
system.cpu0.iq.FU_type_0::SimdSha256Hash            0      0.00%     54.73% # Type of FU issued
system.cpu0.iq.FU_type_0::SimdSha256Hash2            0      0.00%     54.73% # Type of FU issued
system.cpu0.iq.FU_type_0::SimdShaSigma2             0      0.00%     54.73% # Type of FU issued
system.cpu0.iq.FU_type_0::SimdShaSigma3             0      0.00%     54.73% # Type of FU issued
system.cpu0.iq.FU_type_0::SimdPredAlu               0      0.00%     54.73% # Type of FU issued
system.cpu0.iq.FU_type_0::MemRead           223022495     31.58%     86.31% # Type of FU issued
system.cpu0.iq.FU_type_0::MemWrite           96702718     13.69%    100.00% # Type of FU issued
system.cpu0.iq.FU_type_0::FloatMemRead              9      0.00%    100.00% # Type of FU issued
system.cpu0.iq.FU_type_0::FloatMemWrite            20      0.00%    100.00% # Type of FU issued
system.cpu0.iq.FU_type_0::IprAccess                 0      0.00%    100.00% # Type of FU issued
system.cpu0.iq.FU_type_0::InstPrefetch              0      0.00%    100.00% # Type of FU issued
system.cpu0.iq.FU_type_0::total             706212444                       # Type of FU issued
system.cpu0.iq.fp_alu_accesses                     55                       # Number of floating point alu accesses
system.cpu0.iq.fp_inst_queue_reads                106                       # Number of floating instruction queue reads
system.cpu0.iq.fp_inst_queue_wakeup_accesses           51                       # Number of floating instruction queue wakeup accesses
system.cpu0.iq.fp_inst_queue_writes                52                       # Number of floating instruction queue writes
system.cpu0.iq.fu_busy_cnt                    2135823                       # FU busy when requested
system.cpu0.iq.fu_busy_rate                  0.003024                       # FU busy rate (busy events/executed inst)
system.cpu0.iq.fu_full::No_OpClass                  0      0.00%      0.00% # attempts to use FU when none available
system.cpu0.iq.fu_full::IntAlu                 363729     17.03%     17.03% # attempts to use FU when none available
system.cpu0.iq.fu_full::IntMult                    88      0.00%     17.03% # attempts to use FU when none available
system.cpu0.iq.fu_full::IntDiv                 307786     14.41%     31.44% # attempts to use FU when none available
system.cpu0.iq.fu_full::FloatAdd                    0      0.00%     31.44% # attempts to use FU when none available
system.cpu0.iq.fu_full::FloatCmp                    0      0.00%     31.44% # attempts to use FU when none available
system.cpu0.iq.fu_full::FloatCvt                    0      0.00%     31.44% # attempts to use FU when none available
system.cpu0.iq.fu_full::FloatMult                   0      0.00%     31.44% # attempts to use FU when none available
system.cpu0.iq.fu_full::FloatMultAcc                0      0.00%     31.44% # attempts to use FU when none available
system.cpu0.iq.fu_full::FloatDiv                    0      0.00%     31.44% # attempts to use FU when none available
system.cpu0.iq.fu_full::FloatMisc                   0      0.00%     31.44% # attempts to use FU when none available
system.cpu0.iq.fu_full::FloatSqrt                   0      0.00%     31.44% # attempts to use FU when none available
system.cpu0.iq.fu_full::SimdAdd                     0      0.00%     31.44% # attempts to use FU when none available
system.cpu0.iq.fu_full::SimdAddAcc                  0      0.00%     31.44% # attempts to use FU when none available
system.cpu0.iq.fu_full::SimdAlu                     0      0.00%     31.44% # attempts to use FU when none available
system.cpu0.iq.fu_full::SimdCmp                     0      0.00%     31.44% # attempts to use FU when none available
system.cpu0.iq.fu_full::SimdCvt                     0      0.00%     31.44% # attempts to use FU when none available
system.cpu0.iq.fu_full::SimdMisc                    0      0.00%     31.44% # attempts to use FU when none available
system.cpu0.iq.fu_full::SimdMult                    0      0.00%     31.44% # attempts to use FU when none available
system.cpu0.iq.fu_full::SimdMultAcc                 0      0.00%     31.44% # attempts to use FU when none available
system.cpu0.iq.fu_full::SimdShift                   0      0.00%     31.44% # attempts to use FU when none available
system.cpu0.iq.fu_full::SimdShiftAcc                0      0.00%     31.44% # attempts to use FU when none available
system.cpu0.iq.fu_full::SimdDiv                     0      0.00%     31.44% # attempts to use FU when none available
system.cpu0.iq.fu_full::SimdSqrt                    0      0.00%     31.44% # attempts to use FU when none available
system.cpu0.iq.fu_full::SimdFloatAdd                0      0.00%     31.44% # attempts to use FU when none available
system.cpu0.iq.fu_full::SimdFloatAlu                0      0.00%     31.44% # attempts to use FU when none available
system.cpu0.iq.fu_full::SimdFloatCmp                0      0.00%     31.44% # attempts to use FU when none available
system.cpu0.iq.fu_full::SimdFloatCvt                0      0.00%     31.44% # attempts to use FU when none available
system.cpu0.iq.fu_full::SimdFloatDiv                0      0.00%     31.44% # attempts to use FU when none available
system.cpu0.iq.fu_full::SimdFloatMisc               0      0.00%     31.44% # attempts to use FU when none available
system.cpu0.iq.fu_full::SimdFloatMult               0      0.00%     31.44% # attempts to use FU when none available
system.cpu0.iq.fu_full::SimdFloatMultAcc            0      0.00%     31.44% # attempts to use FU when none available
system.cpu0.iq.fu_full::SimdFloatSqrt               0      0.00%     31.44% # attempts to use FU when none available
system.cpu0.iq.fu_full::SimdReduceAdd               0      0.00%     31.44% # attempts to use FU when none available
system.cpu0.iq.fu_full::SimdReduceAlu               0      0.00%     31.44% # attempts to use FU when none available
system.cpu0.iq.fu_full::SimdReduceCmp               0      0.00%     31.44% # attempts to use FU when none available
system.cpu0.iq.fu_full::SimdFloatReduceAdd            0      0.00%     31.44% # attempts to use FU when none available
system.cpu0.iq.fu_full::SimdFloatReduceCmp            0      0.00%     31.44% # attempts to use FU when none available
system.cpu0.iq.fu_full::SimdAes                     0      0.00%     31.44% # attempts to use FU when none available
system.cpu0.iq.fu_full::SimdAesMix                  0      0.00%     31.44% # attempts to use FU when none available
system.cpu0.iq.fu_full::SimdSha1Hash                0      0.00%     31.44% # attempts to use FU when none available
system.cpu0.iq.fu_full::SimdSha1Hash2               0      0.00%     31.44% # attempts to use FU when none available
system.cpu0.iq.fu_full::SimdSha256Hash              0      0.00%     31.44% # attempts to use FU when none available
system.cpu0.iq.fu_full::SimdSha256Hash2             0      0.00%     31.44% # attempts to use FU when none available
system.cpu0.iq.fu_full::SimdShaSigma2               0      0.00%     31.44% # attempts to use FU when none available
system.cpu0.iq.fu_full::SimdShaSigma3               0      0.00%     31.44% # attempts to use FU when none available
system.cpu0.iq.fu_full::SimdPredAlu                 0      0.00%     31.44% # attempts to use FU when none available
system.cpu0.iq.fu_full::MemRead               1251069     58.58%     90.02% # attempts to use FU when none available
system.cpu0.iq.fu_full::MemWrite               213147      9.98%    100.00% # attempts to use FU when none available
system.cpu0.iq.fu_full::FloatMemRead                0      0.00%    100.00% # attempts to use FU when none available
system.cpu0.iq.fu_full::FloatMemWrite               4      0.00%    100.00% # attempts to use FU when none available
system.cpu0.iq.fu_full::IprAccess                   0      0.00%    100.00% # attempts to use FU when none available
system.cpu0.iq.fu_full::InstPrefetch                0      0.00%    100.00% # attempts to use FU when none available
system.cpu0.iq.int_alu_accesses             706309647                       # Number of integer alu accesses
system.cpu0.iq.int_inst_queue_reads        2556007346                       # Number of integer instruction queue reads
system.cpu0.iq.int_inst_queue_wakeup_accesses    693859420                       # Number of integer instruction queue wakeup accesses
system.cpu0.iq.int_inst_queue_writes        798790875                       # Number of integer instruction queue writes
system.cpu0.iq.iqInstsAdded                 708662504                       # Number of instructions added to the IQ (excludes non-spec)
system.cpu0.iq.iqInstsIssued                706212444                       # Number of instructions issued
system.cpu0.iq.iqNonSpecInstsAdded            3059042                       # Number of non-speculative instructions added to the IQ
system.cpu0.iq.iqSquashedInstsExamined       87059965                       # Number of squashed instructions iterated over during squash; mainly for profiling
system.cpu0.iq.iqSquashedInstsIssued           125931                       # Number of squashed instructions issued
system.cpu0.iq.iqSquashedNonSpecRemoved           510                       # Number of squashed non-spec instructions that were removed
system.cpu0.iq.iqSquashedOperandsExamined     19977360                       # Number of squashed operands that are examined and possibly removed from graph
system.cpu0.iq.issued_per_cycle::samples   1141320811                       # Number of insts issued each cycle
system.cpu0.iq.issued_per_cycle::mean        0.618768                       # Number of insts issued each cycle
system.cpu0.iq.issued_per_cycle::stdev       0.844686                       # Number of insts issued each cycle
system.cpu0.iq.issued_per_cycle::underflows            0      0.00%      0.00% # Number of insts issued each cycle
system.cpu0.iq.issued_per_cycle::0          637680636     55.87%     55.87% # Number of insts issued each cycle
system.cpu0.iq.issued_per_cycle::1          347583496     30.45%     86.33% # Number of insts issued each cycle
system.cpu0.iq.issued_per_cycle::2          124743409     10.93%     97.26% # Number of insts issued each cycle
system.cpu0.iq.issued_per_cycle::3           21539980      1.89%     99.14% # Number of insts issued each cycle
system.cpu0.iq.issued_per_cycle::4            6668262      0.58%     99.73% # Number of insts issued each cycle
system.cpu0.iq.issued_per_cycle::5            1196252      0.10%     99.83% # Number of insts issued each cycle
system.cpu0.iq.issued_per_cycle::6            1582579      0.14%     99.97% # Number of insts issued each cycle
system.cpu0.iq.issued_per_cycle::7             237168      0.02%     99.99% # Number of insts issued each cycle
system.cpu0.iq.issued_per_cycle::8              89029      0.01%    100.00% # Number of insts issued each cycle
system.cpu0.iq.issued_per_cycle::overflows            0      0.00%    100.00% # Number of insts issued each cycle
system.cpu0.iq.issued_per_cycle::min_value            0                       # Number of insts issued each cycle
system.cpu0.iq.issued_per_cycle::max_value            8                       # Number of insts issued each cycle
system.cpu0.iq.issued_per_cycle::total     1141320811                       # Number of insts issued each cycle
system.cpu0.iq.rate                          0.533801                       # Inst issue rate
system.cpu0.iq.vec_alu_accesses                     0                       # Number of vector alu accesses
system.cpu0.iq.vec_inst_queue_reads                 0                       # Number of vector instruction queue reads
system.cpu0.iq.vec_inst_queue_wakeup_accesses            0                       # Number of vector instruction queue wakeup accesses
system.cpu0.iq.vec_inst_queue_writes                0                       # Number of vector instruction queue writes
system.cpu0.itb.accesses                            0                       # DTB accesses
system.cpu0.itb.hits                                0                       # DTB hits
system.cpu0.itb.misses                              0                       # DTB misses
system.cpu0.itb.read_accesses                       0                       # DTB read accesses
system.cpu0.itb.read_hits                           0                       # DTB read hits
system.cpu0.itb.read_misses                         0                       # DTB read misses
system.cpu0.itb.write_accesses                      0                       # DTB write accesses
system.cpu0.itb.write_hits                          0                       # DTB write hits
system.cpu0.itb.write_misses                        0                       # DTB write misses
system.cpu0.memDep0.conflictingLoads         11849082                       # Number of conflicting loads.
system.cpu0.memDep0.conflictingStores         6520891                       # Number of conflicting stores.
system.cpu0.memDep0.insertedLoads           220529145                       # Number of loads inserted to the mem dependence unit.
system.cpu0.memDep0.insertedStores          100551081                       # Number of stores inserted to the mem dependence unit.
system.cpu0.misc_regfile_reads                    883                       # number of misc regfile reads
system.cpu0.misc_regfile_writes                    22                       # number of misc regfile writes
system.cpu0.numCycles                      1322987282                       # number of cpu cycles simulated
system.cpu0.numWorkItemsCompleted                   0                       # number of work items this cpu completed
system.cpu0.numWorkItemsStarted                     0                       # number of work items this cpu started
system.cpu0.quiesceCycles                    10215849                       # Total number of cycles that CPU has spent quiesced or waiting for an interrupt
system.cpu0.rename.BlockCycles              185118321                       # Number of cycles rename is blocking
system.cpu0.rename.CommittedMaps            399053705                       # Number of HB maps that are committed
system.cpu0.rename.IQFullEvents               7296587                       # Number of times rename has blocked due to IQ full
system.cpu0.rename.IdleCycles               414437864                       # Number of cycles rename is idle
system.cpu0.rename.LQFullEvents              11866327                       # Number of times rename has blocked due to LQ full
system.cpu0.rename.ROBFullEvents                18598                       # Number of times rename has blocked due to ROB full
system.cpu0.rename.RenameLookups            890592243                       # Number of register rename lookups that rename has made
system.cpu0.rename.RenamedInsts             720066874                       # Number of instructions processed by rename
system.cpu0.rename.RenamedOperands          460323466                       # Number of destination operands rename has renamed
system.cpu0.rename.RunCycles                504498295                       # Number of cycles rename is running
system.cpu0.rename.SQFullEvents              12001695                       # Number of times rename has blocked due to SQ full
system.cpu0.rename.SquashCycles               5538942                       # Number of cycles rename is squashing
system.cpu0.rename.UnblockCycles             31632849                       # Number of cycles rename is unblocking
system.cpu0.rename.UndoneMaps                61269693                       # Number of HB maps that are undone due to squashing
system.cpu0.rename.fp_rename_lookups               44                       # Number of floating rename lookups
system.cpu0.rename.int_rename_lookups       890592199                       # Number of integer rename lookups
system.cpu0.rename.serializeStallCycles         94540                       # count of cycles rename stalled for serializing inst
system.cpu0.rename.serializingInsts              2865                       # count of serializing insts renamed
system.cpu0.rename.skidInsts                 16604277                       # count of insts added to the skid buffer
system.cpu0.rename.tempSerializingInsts          2856                       # count of temporary serializing insts renamed
system.cpu0.rob.rob_reads                  1818245017                       # The number of ROB reads
system.cpu0.rob.rob_writes                 1438293335                       # The number of ROB writes
system.cpu0.timesIdled                       12037579                       # Number of times that the entire CPU went into an idle state and unscheduled itself
system.cpu0.workload.numSyscalls                  850                       # Number of system calls
system.cpu1.branchPred.BTBCorrect                   0                       # Number of correct BTB predictions (this stat may not work properly.
system.cpu1.branchPred.BTBHitPct            81.420200                       # BTB Hit Percentage
system.cpu1.branchPred.BTBHits                6658513                       # Number of BTB hits
system.cpu1.branchPred.BTBLookups             8177962                       # Number of BTB lookups
system.cpu1.branchPred.RASInCorrect                 0                       # Number of incorrect RAS predictions.
system.cpu1.branchPred.condIncorrect          1021106                       # Number of conditional branches incorrect
system.cpu1.branchPred.condPredicted          9949394                       # Number of conditional branches predicted
system.cpu1.branchPred.indirectHits            799208                       # Number of indirect target hits.
system.cpu1.branchPred.indirectLookups         952027                       # Number of indirect predictor lookups.
system.cpu1.branchPred.indirectMisses          152819                       # Number of indirect misses.
system.cpu1.branchPred.lookups               12253820                       # Number of BP lookups
system.cpu1.branchPred.usedRAS                      0                       # Number of times the RAS was used to get a target.
system.cpu1.branchPredindirectMispredicted        10151                       # Number of mispredicted indirect branches.
system.cpu1.commit.amos                       1017936                       # Number of atomic instructions committed
system.cpu1.commit.branchMispredicts           581100                       # The number of times a branch was mispredicted
system.cpu1.commit.branches                  10115169                       # Number of branches committed
system.cpu1.commit.bw_lim_events              2594906                       # number cycles where commit BW limit reached
system.cpu1.commit.commitNonSpecStalls        3054472                       # The number of times commit has been forced to stall to communicate backwards
system.cpu1.commit.commitSquashedInsts        6051337                       # The number of squashed insts skipped by commit
system.cpu1.commit.committedInsts            57392905                       # Number of instructions committed
system.cpu1.commit.committedOps              58411015                       # Number of ops (including micro ops) committed
system.cpu1.commit.committed_per_cycle::samples    228978989                       # Number of insts commited each cycle
system.cpu1.commit.committed_per_cycle::mean     0.255093                       # Number of insts commited each cycle
system.cpu1.commit.committed_per_cycle::stdev     1.071172                       # Number of insts commited each cycle
system.cpu1.commit.committed_per_cycle::underflows            0      0.00%      0.00% # Number of insts commited each cycle
system.cpu1.commit.committed_per_cycle::0    207457851     90.60%     90.60% # Number of insts commited each cycle
system.cpu1.commit.committed_per_cycle::1     10170059      4.44%     95.04% # Number of insts commited each cycle
system.cpu1.commit.committed_per_cycle::2      3870787      1.69%     96.73% # Number of insts commited each cycle
system.cpu1.commit.committed_per_cycle::3      2053274      0.90%     97.63% # Number of insts commited each cycle
system.cpu1.commit.committed_per_cycle::4      1347626      0.59%     98.22% # Number of insts commited each cycle
system.cpu1.commit.committed_per_cycle::5       872593      0.38%     98.60% # Number of insts commited each cycle
system.cpu1.commit.committed_per_cycle::6       456408      0.20%     98.80% # Number of insts commited each cycle
system.cpu1.commit.committed_per_cycle::7       155485      0.07%     98.87% # Number of insts commited each cycle
system.cpu1.commit.committed_per_cycle::8      2594906      1.13%    100.00% # Number of insts commited each cycle
system.cpu1.commit.committed_per_cycle::overflows            0      0.00%    100.00% # Number of insts commited each cycle
system.cpu1.commit.committed_per_cycle::min_value            0                       # Number of insts commited each cycle
system.cpu1.commit.committed_per_cycle::max_value            8                       # Number of insts commited each cycle
system.cpu1.commit.committed_per_cycle::total    228978989                       # Number of insts commited each cycle
system.cpu1.commit.fp_insts                        12                       # Number of committed floating point instructions.
system.cpu1.commit.function_calls             1443005                       # Number of function calls committed.
system.cpu1.commit.int_insts                 55975088                       # Number of committed integer instructions.
system.cpu1.commit.loads                     14461503                       # Number of loads committed
system.cpu1.commit.membars                    2035990                       # Number of memory barriers committed
system.cpu1.commit.op_class_0::No_OpClass      2035990      3.49%      3.49% # Class of committed instruction
system.cpu1.commit.op_class_0::IntAlu        34548572     59.15%     62.63% # Class of committed instruction
system.cpu1.commit.op_class_0::IntMult         248003      0.42%     63.06% # Class of committed instruction
system.cpu1.commit.op_class_0::IntDiv          493477      0.84%     63.90% # Class of committed instruction
system.cpu1.commit.op_class_0::FloatAdd             0      0.00%     63.90% # Class of committed instruction
system.cpu1.commit.op_class_0::FloatCmp             0      0.00%     63.90% # Class of committed instruction
system.cpu1.commit.op_class_0::FloatCvt             0      0.00%     63.90% # Class of committed instruction
system.cpu1.commit.op_class_0::FloatMult            0      0.00%     63.90% # Class of committed instruction
system.cpu1.commit.op_class_0::FloatMultAcc            0      0.00%     63.90% # Class of committed instruction
system.cpu1.commit.op_class_0::FloatDiv             0      0.00%     63.90% # Class of committed instruction
system.cpu1.commit.op_class_0::FloatMisc            0      0.00%     63.90% # Class of committed instruction
system.cpu1.commit.op_class_0::FloatSqrt            0      0.00%     63.90% # Class of committed instruction
system.cpu1.commit.op_class_0::SimdAdd              0      0.00%     63.90% # Class of committed instruction
system.cpu1.commit.op_class_0::SimdAddAcc            0      0.00%     63.90% # Class of committed instruction
system.cpu1.commit.op_class_0::SimdAlu              0      0.00%     63.90% # Class of committed instruction
system.cpu1.commit.op_class_0::SimdCmp              0      0.00%     63.90% # Class of committed instruction
system.cpu1.commit.op_class_0::SimdCvt              0      0.00%     63.90% # Class of committed instruction
system.cpu1.commit.op_class_0::SimdMisc             0      0.00%     63.90% # Class of committed instruction
system.cpu1.commit.op_class_0::SimdMult             0      0.00%     63.90% # Class of committed instruction
system.cpu1.commit.op_class_0::SimdMultAcc            0      0.00%     63.90% # Class of committed instruction
system.cpu1.commit.op_class_0::SimdShift            0      0.00%     63.90% # Class of committed instruction
system.cpu1.commit.op_class_0::SimdShiftAcc            0      0.00%     63.90% # Class of committed instruction
system.cpu1.commit.op_class_0::SimdDiv              0      0.00%     63.90% # Class of committed instruction
system.cpu1.commit.op_class_0::SimdSqrt             0      0.00%     63.90% # Class of committed instruction
system.cpu1.commit.op_class_0::SimdFloatAdd            0      0.00%     63.90% # Class of committed instruction
system.cpu1.commit.op_class_0::SimdFloatAlu            0      0.00%     63.90% # Class of committed instruction
system.cpu1.commit.op_class_0::SimdFloatCmp            0      0.00%     63.90% # Class of committed instruction
system.cpu1.commit.op_class_0::SimdFloatCvt            0      0.00%     63.90% # Class of committed instruction
system.cpu1.commit.op_class_0::SimdFloatDiv            0      0.00%     63.90% # Class of committed instruction
system.cpu1.commit.op_class_0::SimdFloatMisc            0      0.00%     63.90% # Class of committed instruction
system.cpu1.commit.op_class_0::SimdFloatMult            0      0.00%     63.90% # Class of committed instruction
system.cpu1.commit.op_class_0::SimdFloatMultAcc            0      0.00%     63.90% # Class of committed instruction
system.cpu1.commit.op_class_0::SimdFloatSqrt            0      0.00%     63.90% # Class of committed instruction
system.cpu1.commit.op_class_0::SimdReduceAdd            0      0.00%     63.90% # Class of committed instruction
system.cpu1.commit.op_class_0::SimdReduceAlu            0      0.00%     63.90% # Class of committed instruction
system.cpu1.commit.op_class_0::SimdReduceCmp            0      0.00%     63.90% # Class of committed instruction
system.cpu1.commit.op_class_0::SimdFloatReduceAdd            0      0.00%     63.90% # Class of committed instruction
system.cpu1.commit.op_class_0::SimdFloatReduceCmp            0      0.00%     63.90% # Class of committed instruction
system.cpu1.commit.op_class_0::SimdAes              0      0.00%     63.90% # Class of committed instruction
system.cpu1.commit.op_class_0::SimdAesMix            0      0.00%     63.90% # Class of committed instruction
system.cpu1.commit.op_class_0::SimdSha1Hash            0      0.00%     63.90% # Class of committed instruction
system.cpu1.commit.op_class_0::SimdSha1Hash2            0      0.00%     63.90% # Class of committed instruction
system.cpu1.commit.op_class_0::SimdSha256Hash            0      0.00%     63.90% # Class of committed instruction
system.cpu1.commit.op_class_0::SimdSha256Hash2            0      0.00%     63.90% # Class of committed instruction
system.cpu1.commit.op_class_0::SimdShaSigma2            0      0.00%     63.90% # Class of committed instruction
system.cpu1.commit.op_class_0::SimdShaSigma3            0      0.00%     63.90% # Class of committed instruction
system.cpu1.commit.op_class_0::SimdPredAlu            0      0.00%     63.90% # Class of committed instruction
system.cpu1.commit.op_class_0::MemRead       15479439     26.50%     90.40% # Class of committed instruction
system.cpu1.commit.op_class_0::MemWrite       5605522      9.60%    100.00% # Class of committed instruction
system.cpu1.commit.op_class_0::FloatMemRead            0      0.00%    100.00% # Class of committed instruction
system.cpu1.commit.op_class_0::FloatMemWrite           12      0.00%    100.00% # Class of committed instruction
system.cpu1.commit.op_class_0::IprAccess            0      0.00%    100.00% # Class of committed instruction
system.cpu1.commit.op_class_0::InstPrefetch            0      0.00%    100.00% # Class of committed instruction
system.cpu1.commit.op_class_0::total         58411015                       # Class of committed instruction
system.cpu1.commit.refs                      21084973                       # Number of memory references committed
system.cpu1.commit.swp_count                        0                       # Number of s/w prefetches committed
system.cpu1.commit.vec_insts                        0                       # Number of committed Vector instructions.
system.cpu1.committedInsts                   57392905                       # Number of Instructions Simulated
system.cpu1.committedOps                     58411015                       # Number of Ops (including micro ops) Simulated
system.cpu1.cpi                              4.023148                       # CPI: Cycles Per Instruction
system.cpu1.cpi_total                        4.023148                       # CPI: Total CPI of All Threads
system.cpu1.decode.BlockedCycles            188332315                       # Number of cycles decode is blocked
system.cpu1.decode.BranchMispred               447269                       # Number of times decode detected a branch misprediction
system.cpu1.decode.BranchResolved             6302294                       # Number of times decode resolved a branch
system.cpu1.decode.DecodedInsts              67519236                       # Number of instructions handled by decode
system.cpu1.decode.IdleCycles                 8869362                       # Number of cycles decode is idle
system.cpu1.decode.RunCycles                 29773168                       # Number of cycles decode is running
system.cpu1.decode.SquashCycles                581382                       # Number of cycles decode is squashing
system.cpu1.decode.SquashedInsts               873716                       # Number of squashed instructions handled by decode
system.cpu1.decode.UnblockCycles              2560947                       # Number of cycles decode is unblocking
system.cpu1.dtb.accesses                            0                       # DTB accesses
system.cpu1.dtb.hits                                0                       # DTB hits
system.cpu1.dtb.misses                              0                       # DTB misses
system.cpu1.dtb.read_accesses                       0                       # DTB read accesses
system.cpu1.dtb.read_hits                           0                       # DTB read hits
system.cpu1.dtb.read_misses                         0                       # DTB read misses
system.cpu1.dtb.write_accesses                      0                       # DTB write accesses
system.cpu1.dtb.write_hits                          0                       # DTB write hits
system.cpu1.dtb.write_misses                        0                       # DTB write misses
system.cpu1.fetch.Branches                   12253820                       # Number of branches that fetch encountered
system.cpu1.fetch.CacheLines                  8823569                       # Number of cache lines fetched
system.cpu1.fetch.Cycles                    219126657                       # Number of cycles fetch has run and was not squashing or blocked
system.cpu1.fetch.IcacheSquashes               106831                       # Number of outstanding Icache misses that were squashed
system.cpu1.fetch.Insts                      69495255                       # Number of instructions fetch has processed
system.cpu1.fetch.MiscStallCycles                   1                       # Number of cycles fetch has spent waiting on interrupts, or bad addresses, or out of MSHRs
system.cpu1.fetch.SquashCycles                2042776                       # Number of cycles fetch has spent squashing
system.cpu1.fetch.branchRate                 0.053070                       # Number of branch fetches per cycle
system.cpu1.fetch.icacheStallCycles           9969128                       # Number of cycles fetch is stalled on an Icache miss
system.cpu1.fetch.predictedBranches           7457721                       # Number of branches that fetch has predicted taken
system.cpu1.fetch.rate                       0.300975                       # Number of inst fetches per cycle
system.cpu1.fetch.rateDist::samples         230117174                       # Number of instructions fetched each cycle (Total)
system.cpu1.fetch.rateDist::mean             0.306425                       # Number of instructions fetched each cycle (Total)
system.cpu1.fetch.rateDist::stdev            0.764523                       # Number of instructions fetched each cycle (Total)
system.cpu1.fetch.rateDist::underflows              0      0.00%      0.00% # Number of instructions fetched each cycle (Total)
system.cpu1.fetch.rateDist::0               185654694     80.68%     80.68% # Number of instructions fetched each cycle (Total)
system.cpu1.fetch.rateDist::1                28704183     12.47%     93.15% # Number of instructions fetched each cycle (Total)
system.cpu1.fetch.rateDist::2                 9652443      4.19%     97.35% # Number of instructions fetched each cycle (Total)
system.cpu1.fetch.rateDist::3                 3728200      1.62%     98.97% # Number of instructions fetched each cycle (Total)
system.cpu1.fetch.rateDist::4                 1024608      0.45%     99.41% # Number of instructions fetched each cycle (Total)
system.cpu1.fetch.rateDist::5                  897073      0.39%     99.80% # Number of instructions fetched each cycle (Total)
system.cpu1.fetch.rateDist::6                  455737      0.20%    100.00% # Number of instructions fetched each cycle (Total)
system.cpu1.fetch.rateDist::7                      10      0.00%    100.00% # Number of instructions fetched each cycle (Total)
system.cpu1.fetch.rateDist::8                     226      0.00%    100.00% # Number of instructions fetched each cycle (Total)
system.cpu1.fetch.rateDist::overflows               0      0.00%    100.00% # Number of instructions fetched each cycle (Total)
system.cpu1.fetch.rateDist::min_value               0                       # Number of instructions fetched each cycle (Total)
system.cpu1.fetch.rateDist::max_value               8                       # Number of instructions fetched each cycle (Total)
system.cpu1.fetch.rateDist::total           230117174                       # Number of instructions fetched each cycle (Total)
system.cpu1.fp_regfile_reads                       12                       # number of floating regfile reads
system.cpu1.idleCycles                         782952                       # Total number of cycles that the CPU has spent unscheduled due to idling
system.cpu1.iew.branchMispredicts              617603                       # Number of branch mispredicts detected at execute
system.cpu1.iew.exec_branches                10897590                       # Number of branches executed
system.cpu1.iew.exec_nop                            0                       # number of nop insts executed
system.cpu1.iew.exec_rate                    0.269587                       # Inst execution rate
system.cpu1.iew.exec_refs                    22266869                       # number of memory reference insts executed
system.cpu1.iew.exec_stores                   6780775                       # Number of stores executed
system.cpu1.iew.exec_swp                            0                       # number of swp insts executed
system.cpu1.iew.iewBlockCycles              158253476                       # Number of cycles IEW is blocking
system.cpu1.iew.iewDispLoadInsts             15614778                       # Number of dispatched load instructions
system.cpu1.iew.iewDispNonSpecInsts           1018635                       # Number of dispatched non-speculative instructions
system.cpu1.iew.iewDispSquashedInsts           791364                       # Number of squashed instructions skipped by dispatch
system.cpu1.iew.iewDispStoreInsts             6986329                       # Number of dispatched store instructions
system.cpu1.iew.iewDispatchedInsts           64454049                       # Number of instructions dispatched to IQ
system.cpu1.iew.iewExecLoadInsts             15486094                       # Number of load instructions executed
system.cpu1.iew.iewExecSquashedInsts           681221                       # Number of squashed instructions skipped in execute
system.cpu1.iew.iewExecutedInsts             62247774                       # Number of executed instructions
system.cpu1.iew.iewIQFullEvents                617513                       # Number of times the IQ has become full, causing a stall
system.cpu1.iew.iewIdleCycles                       0                       # Number of cycles IEW is idle
system.cpu1.iew.iewLSQFullEvents              2762612                       # Number of times the LSQ has become full, causing a stall
system.cpu1.iew.iewSquashCycles                581382                       # Number of cycles IEW is squashing
system.cpu1.iew.iewUnblockCycles              4703646                       # Number of cycles IEW is unblocking
system.cpu1.iew.lsq.thread0.blockedLoads            0                       # Number of blocked loads due to partial load-store forwarding
system.cpu1.iew.lsq.thread0.cacheBlocked        15657                       # Number of times an access to memory failed due to the cache being blocked
system.cpu1.iew.lsq.thread0.forwLoads          623531                       # Number of loads that had data forwarded from stores
system.cpu1.iew.lsq.thread0.ignoredResponses         5859                       # Number of memory responses ignored because the instruction is squashed
system.cpu1.iew.lsq.thread0.invAddrLoads            0                       # Number of loads ignored due to an invalid address
system.cpu1.iew.lsq.thread0.invAddrSwpfs            0                       # Number of software prefetches ignored due to an invalid address
system.cpu1.iew.lsq.thread0.memOrderViolation          294                       # Number of memory ordering violations
system.cpu1.iew.lsq.thread0.rescheduledLoads          217                       # Number of loads that were rescheduled
system.cpu1.iew.lsq.thread0.squashedLoads      1153275                       # Number of loads squashed
system.cpu1.iew.lsq.thread0.squashedStores       362859                       # Number of stores squashed
system.cpu1.iew.memOrderViolationEvents           294                       # Number of memory order violations
system.cpu1.iew.predictedNotTakenIncorrect        77168                       # Number of branches that were predicted not taken incorrectly
system.cpu1.iew.predictedTakenIncorrect        540435                       # Number of branches that were predicted taken incorrectly
system.cpu1.iew.wb_consumers                 36383266                       # num instructions consuming a value
system.cpu1.iew.wb_count                     61880398                       # cumulative count of insts written-back
system.cpu1.iew.wb_fanout                    0.826183                       # average fanout of values written-back
system.cpu1.iew.wb_producers                 30059234                       # num instructions producing a value
system.cpu1.iew.wb_rate                      0.267996                       # insts written-back per cycle
system.cpu1.iew.wb_sent                      61903761                       # cumulative count of insts sent to commit
system.cpu1.int_regfile_reads                79359783                       # number of integer regfile reads
system.cpu1.int_regfile_writes               43953294                       # number of integer regfile writes
system.cpu1.ipc                              0.248562                       # IPC: Instructions Per Cycle
system.cpu1.ipc_total                        0.248562                       # IPC: Total IPC of All Threads
system.cpu1.iq.FU_type_0::No_OpClass          2036092      3.24%      3.24% # Type of FU issued
system.cpu1.iq.FU_type_0::IntAlu             37747171     59.98%     63.22% # Type of FU issued
system.cpu1.iq.FU_type_0::IntMult              248042      0.39%     63.61% # Type of FU issued
system.cpu1.iq.FU_type_0::IntDiv               493551      0.78%     64.40% # Type of FU issued
system.cpu1.iq.FU_type_0::FloatAdd                  0      0.00%     64.40% # Type of FU issued
system.cpu1.iq.FU_type_0::FloatCmp                  0      0.00%     64.40% # Type of FU issued
system.cpu1.iq.FU_type_0::FloatCvt                  0      0.00%     64.40% # Type of FU issued
system.cpu1.iq.FU_type_0::FloatMult                 0      0.00%     64.40% # Type of FU issued
system.cpu1.iq.FU_type_0::FloatMultAcc              0      0.00%     64.40% # Type of FU issued
system.cpu1.iq.FU_type_0::FloatDiv                  0      0.00%     64.40% # Type of FU issued
system.cpu1.iq.FU_type_0::FloatMisc                 0      0.00%     64.40% # Type of FU issued
system.cpu1.iq.FU_type_0::FloatSqrt                 0      0.00%     64.40% # Type of FU issued
system.cpu1.iq.FU_type_0::SimdAdd                   0      0.00%     64.40% # Type of FU issued
system.cpu1.iq.FU_type_0::SimdAddAcc                0      0.00%     64.40% # Type of FU issued
system.cpu1.iq.FU_type_0::SimdAlu                   0      0.00%     64.40% # Type of FU issued
system.cpu1.iq.FU_type_0::SimdCmp                   0      0.00%     64.40% # Type of FU issued
system.cpu1.iq.FU_type_0::SimdCvt                   0      0.00%     64.40% # Type of FU issued
system.cpu1.iq.FU_type_0::SimdMisc                  0      0.00%     64.40% # Type of FU issued
system.cpu1.iq.FU_type_0::SimdMult                  0      0.00%     64.40% # Type of FU issued
system.cpu1.iq.FU_type_0::SimdMultAcc               0      0.00%     64.40% # Type of FU issued
system.cpu1.iq.FU_type_0::SimdShift                 0      0.00%     64.40% # Type of FU issued
system.cpu1.iq.FU_type_0::SimdShiftAcc              0      0.00%     64.40% # Type of FU issued
system.cpu1.iq.FU_type_0::SimdDiv                   0      0.00%     64.40% # Type of FU issued
system.cpu1.iq.FU_type_0::SimdSqrt                  0      0.00%     64.40% # Type of FU issued
system.cpu1.iq.FU_type_0::SimdFloatAdd              0      0.00%     64.40% # Type of FU issued
system.cpu1.iq.FU_type_0::SimdFloatAlu              0      0.00%     64.40% # Type of FU issued
system.cpu1.iq.FU_type_0::SimdFloatCmp              0      0.00%     64.40% # Type of FU issued
system.cpu1.iq.FU_type_0::SimdFloatCvt              0      0.00%     64.40% # Type of FU issued
system.cpu1.iq.FU_type_0::SimdFloatDiv              0      0.00%     64.40% # Type of FU issued
system.cpu1.iq.FU_type_0::SimdFloatMisc             0      0.00%     64.40% # Type of FU issued
system.cpu1.iq.FU_type_0::SimdFloatMult             0      0.00%     64.40% # Type of FU issued
system.cpu1.iq.FU_type_0::SimdFloatMultAcc            0      0.00%     64.40% # Type of FU issued
system.cpu1.iq.FU_type_0::SimdFloatSqrt             0      0.00%     64.40% # Type of FU issued
system.cpu1.iq.FU_type_0::SimdReduceAdd             0      0.00%     64.40% # Type of FU issued
system.cpu1.iq.FU_type_0::SimdReduceAlu             0      0.00%     64.40% # Type of FU issued
system.cpu1.iq.FU_type_0::SimdReduceCmp             0      0.00%     64.40% # Type of FU issued
system.cpu1.iq.FU_type_0::SimdFloatReduceAdd            0      0.00%     64.40% # Type of FU issued
system.cpu1.iq.FU_type_0::SimdFloatReduceCmp            0      0.00%     64.40% # Type of FU issued
system.cpu1.iq.FU_type_0::SimdAes                   0      0.00%     64.40% # Type of FU issued
system.cpu1.iq.FU_type_0::SimdAesMix                0      0.00%     64.40% # Type of FU issued
system.cpu1.iq.FU_type_0::SimdSha1Hash              0      0.00%     64.40% # Type of FU issued
system.cpu1.iq.FU_type_0::SimdSha1Hash2             0      0.00%     64.40% # Type of FU issued
system.cpu1.iq.FU_type_0::SimdSha256Hash            0      0.00%     64.40% # Type of FU issued
system.cpu1.iq.FU_type_0::SimdSha256Hash2            0      0.00%     64.40% # Type of FU issued
system.cpu1.iq.FU_type_0::SimdShaSigma2             0      0.00%     64.40% # Type of FU issued
system.cpu1.iq.FU_type_0::SimdShaSigma3             0      0.00%     64.40% # Type of FU issued
system.cpu1.iq.FU_type_0::SimdPredAlu               0      0.00%     64.40% # Type of FU issued
system.cpu1.iq.FU_type_0::MemRead            16619506     26.41%     90.81% # Type of FU issued
system.cpu1.iq.FU_type_0::MemWrite            5784621      9.19%    100.00% # Type of FU issued
system.cpu1.iq.FU_type_0::FloatMemRead              0      0.00%    100.00% # Type of FU issued
system.cpu1.iq.FU_type_0::FloatMemWrite            12      0.00%    100.00% # Type of FU issued
system.cpu1.iq.FU_type_0::IprAccess                 0      0.00%    100.00% # Type of FU issued
system.cpu1.iq.FU_type_0::InstPrefetch              0      0.00%    100.00% # Type of FU issued
system.cpu1.iq.FU_type_0::total              62928995                       # Type of FU issued
system.cpu1.iq.fp_alu_accesses                     16                       # Number of floating point alu accesses
system.cpu1.iq.fp_inst_queue_reads                 28                       # Number of floating instruction queue reads
system.cpu1.iq.fp_inst_queue_wakeup_accesses           12                       # Number of floating instruction queue wakeup accesses
system.cpu1.iq.fp_inst_queue_writes                12                       # Number of floating instruction queue writes
system.cpu1.iq.fu_busy_cnt                    1776323                       # FU busy when requested
system.cpu1.iq.fu_busy_rate                  0.028227                       # FU busy rate (busy events/executed inst)
system.cpu1.iq.fu_full::No_OpClass                  0      0.00%      0.00% # attempts to use FU when none available
system.cpu1.iq.fu_full::IntAlu                 233215     13.13%     13.13% # attempts to use FU when none available
system.cpu1.iq.fu_full::IntMult                  3108      0.17%     13.30% # attempts to use FU when none available
system.cpu1.iq.fu_full::IntDiv                 319802     18.00%     31.31% # attempts to use FU when none available
system.cpu1.iq.fu_full::FloatAdd                    0      0.00%     31.31% # attempts to use FU when none available
system.cpu1.iq.fu_full::FloatCmp                    0      0.00%     31.31% # attempts to use FU when none available
system.cpu1.iq.fu_full::FloatCvt                    0      0.00%     31.31% # attempts to use FU when none available
system.cpu1.iq.fu_full::FloatMult                   0      0.00%     31.31% # attempts to use FU when none available
system.cpu1.iq.fu_full::FloatMultAcc                0      0.00%     31.31% # attempts to use FU when none available
system.cpu1.iq.fu_full::FloatDiv                    0      0.00%     31.31% # attempts to use FU when none available
system.cpu1.iq.fu_full::FloatMisc                   0      0.00%     31.31% # attempts to use FU when none available
system.cpu1.iq.fu_full::FloatSqrt                   0      0.00%     31.31% # attempts to use FU when none available
system.cpu1.iq.fu_full::SimdAdd                     0      0.00%     31.31% # attempts to use FU when none available
system.cpu1.iq.fu_full::SimdAddAcc                  0      0.00%     31.31% # attempts to use FU when none available
system.cpu1.iq.fu_full::SimdAlu                     0      0.00%     31.31% # attempts to use FU when none available
system.cpu1.iq.fu_full::SimdCmp                     0      0.00%     31.31% # attempts to use FU when none available
system.cpu1.iq.fu_full::SimdCvt                     0      0.00%     31.31% # attempts to use FU when none available
system.cpu1.iq.fu_full::SimdMisc                    0      0.00%     31.31% # attempts to use FU when none available
system.cpu1.iq.fu_full::SimdMult                    0      0.00%     31.31% # attempts to use FU when none available
system.cpu1.iq.fu_full::SimdMultAcc                 0      0.00%     31.31% # attempts to use FU when none available
system.cpu1.iq.fu_full::SimdShift                   0      0.00%     31.31% # attempts to use FU when none available
system.cpu1.iq.fu_full::SimdShiftAcc                0      0.00%     31.31% # attempts to use FU when none available
system.cpu1.iq.fu_full::SimdDiv                     0      0.00%     31.31% # attempts to use FU when none available
system.cpu1.iq.fu_full::SimdSqrt                    0      0.00%     31.31% # attempts to use FU when none available
system.cpu1.iq.fu_full::SimdFloatAdd                0      0.00%     31.31% # attempts to use FU when none available
system.cpu1.iq.fu_full::SimdFloatAlu                0      0.00%     31.31% # attempts to use FU when none available
system.cpu1.iq.fu_full::SimdFloatCmp                0      0.00%     31.31% # attempts to use FU when none available
system.cpu1.iq.fu_full::SimdFloatCvt                0      0.00%     31.31% # attempts to use FU when none available
system.cpu1.iq.fu_full::SimdFloatDiv                0      0.00%     31.31% # attempts to use FU when none available
system.cpu1.iq.fu_full::SimdFloatMisc               0      0.00%     31.31% # attempts to use FU when none available
system.cpu1.iq.fu_full::SimdFloatMult               0      0.00%     31.31% # attempts to use FU when none available
system.cpu1.iq.fu_full::SimdFloatMultAcc            0      0.00%     31.31% # attempts to use FU when none available
system.cpu1.iq.fu_full::SimdFloatSqrt               0      0.00%     31.31% # attempts to use FU when none available
system.cpu1.iq.fu_full::SimdReduceAdd               0      0.00%     31.31% # attempts to use FU when none available
system.cpu1.iq.fu_full::SimdReduceAlu               0      0.00%     31.31% # attempts to use FU when none available
system.cpu1.iq.fu_full::SimdReduceCmp               0      0.00%     31.31% # attempts to use FU when none available
system.cpu1.iq.fu_full::SimdFloatReduceAdd            0      0.00%     31.31% # attempts to use FU when none available
system.cpu1.iq.fu_full::SimdFloatReduceCmp            0      0.00%     31.31% # attempts to use FU when none available
system.cpu1.iq.fu_full::SimdAes                     0      0.00%     31.31% # attempts to use FU when none available
system.cpu1.iq.fu_full::SimdAesMix                  0      0.00%     31.31% # attempts to use FU when none available
system.cpu1.iq.fu_full::SimdSha1Hash                0      0.00%     31.31% # attempts to use FU when none available
system.cpu1.iq.fu_full::SimdSha1Hash2               0      0.00%     31.31% # attempts to use FU when none available
system.cpu1.iq.fu_full::SimdSha256Hash              0      0.00%     31.31% # attempts to use FU when none available
system.cpu1.iq.fu_full::SimdSha256Hash2             0      0.00%     31.31% # attempts to use FU when none available
system.cpu1.iq.fu_full::SimdShaSigma2               0      0.00%     31.31% # attempts to use FU when none available
system.cpu1.iq.fu_full::SimdShaSigma3               0      0.00%     31.31% # attempts to use FU when none available
system.cpu1.iq.fu_full::SimdPredAlu                 0      0.00%     31.31% # attempts to use FU when none available
system.cpu1.iq.fu_full::MemRead               1078621     60.72%     92.03% # attempts to use FU when none available
system.cpu1.iq.fu_full::MemWrite               141573      7.97%    100.00% # attempts to use FU when none available
[...]
system.cpu1.dcache.WriteReq_misses::total      2699694                       # number of WriteReq misses
system.cpu1.dcache.WriteReq_miss_latency::.cpu1.data 181380408055                       # number of WriteReq miss cycles
system.cpu1.dcache.WriteReq_miss_latency::total 181380408055                       # number of WriteReq miss cycles
system.cpu1.dcache.WriteReq_accesses::.cpu1.data      9883455                       # number of WriteReq accesses(hits+misses)
system.cpu1.dcache.WriteReq_accesses::total      9883455                       # number of WriteReq accesses(hits+misses)
system.cpu1.dcache.WriteReq_miss_rate::.cpu1.data     0.273153                       # miss rate for WriteReq accesses
system.cpu1.dcache.WriteReq_miss_rate::total     0.273153                       # miss rate for WriteReq accesses
system.cpu1.dcache.WriteReq_avg_miss_latency::.cpu1.data 67185.543271                       # average WriteReq miss latency
system.cpu1.dcache.WriteReq_avg_miss_latency::total 67185.543271                       # average WriteReq miss latency
system.cpu1.dcache.WriteReq_mshr_hits::.cpu1.data      1688003                       # number of WriteReq MSHR hits
system.cpu1.dcache.WriteReq_mshr_hits::total      1688003                       # number of WriteReq MSHR hits
system.cpu1.dcache.WriteReq_mshr_misses::.cpu1.data      1011691                       # number of WriteReq MSHR misses
system.cpu1.dcache.WriteReq_mshr_misses::total      1011691                       # number of WriteReq MSHR misses
system.cpu1.dcache.WriteReq_mshr_miss_latency::.cpu1.data  78744075396                       # number of WriteReq MSHR miss cycles
system.cpu1.dcache.WriteReq_mshr_miss_latency::total  78744075396                       # number of WriteReq MSHR miss cycles
system.cpu1.dcache.WriteReq_mshr_miss_rate::.cpu1.data     0.102362                       # mshr miss rate for WriteReq accesses
system.cpu1.dcache.WriteReq_mshr_miss_rate::total     0.102362                       # mshr miss rate for WriteReq accesses
system.cpu1.dcache.WriteReq_avg_mshr_miss_latency::.cpu1.data 77834.116737                       # average WriteReq mshr miss latency
system.cpu1.dcache.WriteReq_avg_mshr_miss_latency::total 77834.116737                       # average WriteReq mshr miss latency
system.cpu1.dcache.LoadLockedReq_hits::.cpu1.data       558458                       # number of LoadLockedReq hits
system.cpu1.dcache.LoadLockedReq_hits::total       558458                       # number of LoadLockedReq hits
system.cpu1.dcache.LoadLockedReq_misses::.cpu1.data        78338                       # number of LoadLockedReq misses
system.cpu1.dcache.LoadLockedReq_misses::total        78338                       # number of LoadLockedReq misses
system.cpu1.dcache.LoadLockedReq_miss_latency::.cpu1.data   4163879000                       # number of LoadLockedReq miss cycles
system.cpu1.dcache.LoadLockedReq_miss_latency::total   4163879000                       # number of LoadLockedReq miss cycles
system.cpu1.dcache.LoadLockedReq_accesses::.cpu1.data       636796                       # number of LoadLockedReq accesses(hits+misses)
system.cpu1.dcache.LoadLockedReq_accesses::total       636796                       # number of LoadLockedReq accesses(hits+misses)
system.cpu1.dcache.LoadLockedReq_miss_rate::.cpu1.data     0.123019                       # miss rate for LoadLockedReq accesses
system.cpu1.dcache.LoadLockedReq_miss_rate::total     0.123019                       # miss rate for LoadLockedReq accesses
system.cpu1.dcache.LoadLockedReq_avg_miss_latency::.cpu1.data 53152.735582                       # average LoadLockedReq miss latency
system.cpu1.dcache.LoadLockedReq_avg_miss_latency::total 53152.735582                       # average LoadLockedReq miss latency
system.cpu1.dcache.LoadLockedReq_mshr_hits::.cpu1.data        38505                       # number of LoadLockedReq MSHR hits
system.cpu1.dcache.LoadLockedReq_mshr_hits::total        38505                       # number of LoadLockedReq MSHR hits
system.cpu1.dcache.LoadLockedReq_mshr_misses::.cpu1.data        39833                       # number of LoadLockedReq MSHR misses
system.cpu1.dcache.LoadLockedReq_mshr_misses::total        39833                       # number of LoadLockedReq MSHR misses
system.cpu1.dcache.LoadLockedReq_mshr_miss_latency::.cpu1.data   2483608000                       # number of LoadLockedReq MSHR miss cycles
system.cpu1.dcache.LoadLockedReq_mshr_miss_latency::total   2483608000                       # number of LoadLockedReq MSHR miss cycles
system.cpu1.dcache.LoadLockedReq_mshr_miss_rate::.cpu1.data     0.062552                       # mshr miss rate for LoadLockedReq accesses
system.cpu1.dcache.LoadLockedReq_mshr_miss_rate::total     0.062552                       # mshr miss rate for LoadLockedReq accesses
system.cpu1.dcache.LoadLockedReq_avg_mshr_miss_latency::.cpu1.data 62350.513393                       # average LoadLockedReq mshr miss latency
system.cpu1.dcache.LoadLockedReq_avg_mshr_miss_latency::total 62350.513393                       # average LoadLockedReq mshr miss latency
system.cpu1.dcache.StoreCondReq_hits::.cpu1.data       540388                       # number of StoreCondReq hits
system.cpu1.dcache.StoreCondReq_hits::total       540388                       # number of StoreCondReq hits
system.cpu1.dcache.StoreCondReq_misses::.cpu1.data        47534                       # number of StoreCondReq misses
system.cpu1.dcache.StoreCondReq_misses::total        47534                       # number of StoreCondReq misses
system.cpu1.dcache.StoreCondReq_miss_latency::.cpu1.data    360571000                       # number of StoreCondReq miss cycles
system.cpu1.dcache.StoreCondReq_miss_latency::total    360571000                       # number of StoreCondReq miss cycles
system.cpu1.dcache.StoreCondReq_accesses::.cpu1.data       587922                       # number of StoreCondReq accesses(hits+misses)
system.cpu1.dcache.StoreCondReq_accesses::total       587922                       # number of StoreCondReq accesses(hits+misses)
system.cpu1.dcache.StoreCondReq_miss_rate::.cpu1.data     0.080851                       # miss rate for StoreCondReq accesses
system.cpu1.dcache.StoreCondReq_miss_rate::total     0.080851                       # miss rate for StoreCondReq accesses
system.cpu1.dcache.StoreCondReq_avg_miss_latency::.cpu1.data  7585.538772                       # average StoreCondReq miss latency
system.cpu1.dcache.StoreCondReq_avg_miss_latency::total  7585.538772                       # average StoreCondReq miss latency
system.cpu1.dcache.StoreCondReq_mshr_misses::.cpu1.data        47521                       # number of StoreCondReq MSHR misses
system.cpu1.dcache.StoreCondReq_mshr_misses::total        47521                       # number of StoreCondReq MSHR misses
system.cpu1.dcache.StoreCondReq_mshr_miss_latency::.cpu1.data    314062000                       # number of StoreCondReq MSHR miss cycles
system.cpu1.dcache.StoreCondReq_mshr_miss_latency::total    314062000                       # number of StoreCondReq MSHR miss cycles
system.cpu1.dcache.StoreCondReq_mshr_miss_rate::.cpu1.data     0.080829                       # mshr miss rate for StoreCondReq accesses
system.cpu1.dcache.StoreCondReq_mshr_miss_rate::total     0.080829                       # mshr miss rate for StoreCondReq accesses
system.cpu1.dcache.StoreCondReq_avg_mshr_miss_latency::.cpu1.data  6608.909745                       # average StoreCondReq mshr miss latency
system.cpu1.dcache.StoreCondReq_avg_mshr_miss_latency::total  6608.909745                       # average StoreCondReq mshr miss latency
system.cpu1.dcache.StoreCondFailReq_miss_latency::.cpu1.data     15812000                       # number of StoreCondFailReq miss cycles
system.cpu1.dcache.StoreCondFailReq_miss_latency::total     15812000                       # number of StoreCondFailReq miss cycles
system.cpu1.dcache.StoreCondFailReq_avg_miss_latency::.cpu1.data          inf                       # average StoreCondFailReq miss latency
system.cpu1.dcache.StoreCondFailReq_avg_miss_latency::total          inf                       # average StoreCondFailReq miss latency
system.cpu1.dcache.StoreCondFailReq_mshr_miss_latency::.cpu1.data     14800000                       # number of StoreCondFailReq MSHR miss cycles
system.cpu1.dcache.StoreCondFailReq_mshr_miss_latency::total     14800000                       # number of StoreCondFailReq MSHR miss cycles
system.cpu1.dcache.StoreCondFailReq_avg_mshr_miss_latency::.cpu1.data          inf                       # average StoreCondFailReq mshr miss latency
system.cpu1.dcache.StoreCondFailReq_avg_mshr_miss_latency::total          inf                       # average StoreCondFailReq mshr miss latency
system.cpu1.dcache.SwapReq_hits::.cpu1.data       114735                       # number of SwapReq hits
system.cpu1.dcache.SwapReq_hits::total         114735                       # number of SwapReq hits
system.cpu1.dcache.SwapReq_misses::.cpu1.data        47779                       # number of SwapReq misses
system.cpu1.dcache.SwapReq_misses::total        47779                       # number of SwapReq misses
system.cpu1.dcache.SwapReq_miss_latency::.cpu1.data    753250984                       # number of SwapReq miss cycles
system.cpu1.dcache.SwapReq_miss_latency::total    753250984                       # number of SwapReq miss cycles
system.cpu1.dcache.SwapReq_accesses::.cpu1.data       162514                       # number of SwapReq accesses(hits+misses)
system.cpu1.dcache.SwapReq_accesses::total       162514                       # number of SwapReq accesses(hits+misses)
system.cpu1.dcache.SwapReq_miss_rate::.cpu1.data     0.293999                       # miss rate for SwapReq accesses
system.cpu1.dcache.SwapReq_miss_rate::total     0.293999                       # miss rate for SwapReq accesses
system.cpu1.dcache.SwapReq_avg_miss_latency::.cpu1.data 15765.314971                       # average SwapReq miss latency
system.cpu1.dcache.SwapReq_avg_miss_latency::total 15765.314971                       # average SwapReq miss latency
system.cpu1.dcache.SwapReq_mshr_hits::.cpu1.data          145                       # number of SwapReq MSHR hits
system.cpu1.dcache.SwapReq_mshr_hits::total          145                       # number of SwapReq MSHR hits
system.cpu1.dcache.SwapReq_mshr_misses::.cpu1.data        47634                       # number of SwapReq MSHR misses
system.cpu1.dcache.SwapReq_mshr_misses::total        47634                       # number of SwapReq MSHR misses
system.cpu1.dcache.SwapReq_mshr_miss_latency::.cpu1.data    702863984                       # number of SwapReq MSHR miss cycles
system.cpu1.dcache.SwapReq_mshr_miss_latency::total    702863984                       # number of SwapReq MSHR miss cycles
system.cpu1.dcache.SwapReq_mshr_miss_rate::.cpu1.data     0.293107                       # mshr miss rate for SwapReq accesses
system.cpu1.dcache.SwapReq_mshr_miss_rate::total     0.293107                       # mshr miss rate for SwapReq accesses
system.cpu1.dcache.SwapReq_avg_mshr_miss_latency::.cpu1.data 14755.510434                       # average SwapReq mshr miss latency
system.cpu1.dcache.SwapReq_avg_mshr_miss_latency::total 14755.510434                       # average SwapReq mshr miss latency
system.cpu1.dcache.tags.pwrStateResidencyTicks::UNDEFINED 673977619000                       # Cumulative time (in ticks) in various power states
system.cpu1.dcache.tags.tagsinuse           31.739156                       # Cycle average of tags in use
system.cpu1.dcache.tags.total_refs           49309769                       # Total number of references to valid blocks.
system.cpu1.dcache.tags.sampled_refs          7736474                       # Sample count of references to valid blocks.
system.cpu1.dcache.tags.avg_refs             6.373675                       # Average number of references to valid blocks.
system.cpu1.dcache.tags.warmup_cycle                0                       # Cycle when the warmup percentage was hit.
system.cpu1.dcache.tags.occ_blocks::.cpu1.data    31.739156                       # Average occupied blocks per requestor
system.cpu1.dcache.tags.occ_percent::.cpu1.data     0.991849                       # Average percentage of cache occupancy
system.cpu1.dcache.tags.occ_percent::total     0.991849                       # Average percentage of cache occupancy
system.cpu1.dcache.tags.occ_task_id_blocks::1024           30                       # Occupied blocks per task id
system.cpu1.dcache.tags.age_task_id_blocks_1024::1            5                       # Occupied blocks per task id
system.cpu1.dcache.tags.age_task_id_blocks_1024::2           25                       # Occupied blocks per task id
system.cpu1.dcache.tags.occ_task_id_percent::1024     0.937500                       # Percentage of cache occupancy per task id
system.cpu1.dcache.tags.tag_accesses        124220869                       # Number of tag accesses
system.cpu1.dcache.tags.data_accesses       124220869                       # Number of data accesses
system.cpu_clk_domain.clock                       500                       # Clock period in ticks
system.tol2bus.pwrStateResidencyTicks::UNDEFINED 673977619000                       # Cumulative time (in ticks) in various power states
system.tol2bus.trans_dist::ReadResp          21509267                       # Transaction distribution
system.tol2bus.trans_dist::WritebackDirty      8949617                       # Transaction distribution
system.tol2bus.trans_dist::WritebackClean     18469008                       # Transaction distribution
system.tol2bus.trans_dist::CleanEvict        35035674                       # Transaction distribution
system.tol2bus.trans_dist::HardPFReq         10982094                       # Transaction distribution
system.tol2bus.trans_dist::HardPFResp              12                       # Transaction distribution
system.tol2bus.trans_dist::UpgradeReq          155259                       # Transaction distribution
system.tol2bus.trans_dist::SCUpgradeReq         95930                       # Transaction distribution
system.tol2bus.trans_dist::UpgradeResp         251189                       # Transaction distribution
system.tol2bus.trans_dist::SCUpgradeFailReq         1507                       # Transaction distribution
system.tol2bus.trans_dist::UpgradeFailResp         1507                       # Transaction distribution
system.tol2bus.trans_dist::ReadExReq          2008423                       # Transaction distribution
system.tol2bus.trans_dist::ReadExResp         2008424                       # Transaction distribution
system.tol2bus.trans_dist::ReadCleanReq       7359773                       # Transaction distribution
system.tol2bus.trans_dist::ReadSharedReq     14149494                       # Transaction distribution
system.tol2bus.trans_dist::InvalidateReq        13758                       # Transaction distribution
system.tol2bus.trans_dist::InvalidateResp        13758                       # Transaction distribution
system.tol2bus.pkt_count_system.cpu0.icache.mem_side::system.l2.cpu_side      9232864                       # Packet count per connected master and slave (bytes)
system.tol2bus.pkt_count_system.cpu0.dcache.mem_side::system.l2.cpu_side     25170044                       # Packet count per connected master and slave (bytes)
system.tol2bus.pkt_count_system.cpu1.icache.mem_side::system.l2.cpu_side     12844427                       # Packet count per connected master and slave (bytes)
system.tol2bus.pkt_count_system.cpu1.dcache.mem_side::system.l2.cpu_side     22984925                       # Packet count per connected master and slave (bytes)
system.tol2bus.pkt_count::total              70232260                       # Packet count per connected master and slave (bytes)
system.tol2bus.pkt_size_system.cpu0.icache.mem_side::system.l2.cpu_side    393909120                       # Cumulative packet size per connected master and slave (bytes)
system.tol2bus.pkt_size_system.cpu0.dcache.mem_side::system.l2.cpu_side   1058685696                       # Cumulative packet size per connected master and slave (bytes)
system.tol2bus.pkt_size_system.cpu1.icache.mem_side::system.l2.cpu_side    548012032                       # Cumulative packet size per connected master and slave (bytes)
system.tol2bus.pkt_size_system.cpu1.dcache.mem_side::system.l2.cpu_side    966645376                       # Cumulative packet size per connected master and slave (bytes)
system.tol2bus.pkt_size::total             2967252224                       # Cumulative packet size per connected master and slave (bytes)
system.tol2bus.snoops                        50772446                       # Total snoops (count)
system.tol2bus.snoopTraffic                 292769984                       # Total snoop traffic (bytes)
system.tol2bus.snoop_fanout::samples         73997284                       # Request fanout histogram
system.tol2bus.snoop_fanout::mean            0.282865                       # Request fanout histogram
system.tol2bus.snoop_fanout::stdev           0.495560                       # Request fanout histogram
system.tol2bus.snoop_fanout::underflows             0      0.00%      0.00% # Request fanout histogram
system.tol2bus.snoop_fanout::0               54646905     73.85%     73.85% # Request fanout histogram
system.tol2bus.snoop_fanout::1               17769527     24.01%     97.86% # Request fanout histogram
system.tol2bus.snoop_fanout::2                1580850      2.14%    100.00% # Request fanout histogram
system.tol2bus.snoop_fanout::3                      2      0.00%    100.00% # Request fanout histogram
system.tol2bus.snoop_fanout::4                      0      0.00%    100.00% # Request fanout histogram
system.tol2bus.snoop_fanout::5                      0      0.00%    100.00% # Request fanout histogram
system.tol2bus.snoop_fanout::6                      0      0.00%    100.00% # Request fanout histogram
system.tol2bus.snoop_fanout::7                      0      0.00%    100.00% # Request fanout histogram
system.tol2bus.snoop_fanout::8                      0      0.00%    100.00% # Request fanout histogram
system.tol2bus.snoop_fanout::overflows              0      0.00%    100.00% # Request fanout histogram
system.tol2bus.snoop_fanout::min_value              0                       # Request fanout histogram
system.tol2bus.snoop_fanout::max_value              3                       # Request fanout histogram
system.tol2bus.snoop_fanout::total           73997284                       # Request fanout histogram
system.tol2bus.reqLayer0.occupancy        46729708235                       # Layer occupancy (ticks)
system.tol2bus.reqLayer0.utilization              6.9                       # Layer utilization (%)
system.tol2bus.respLayer1.occupancy       12727040990                       # Layer occupancy (ticks)
system.tol2bus.respLayer1.utilization             1.9                       # Layer utilization (%)
system.tol2bus.respLayer0.occupancy        4630998529                       # Layer occupancy (ticks)
system.tol2bus.respLayer0.utilization             0.7                       # Layer utilization (%)
system.tol2bus.respLayer3.occupancy       11669921070                       # Layer occupancy (ticks)
system.tol2bus.respLayer3.utilization             1.7                       # Layer utilization (%)
system.tol2bus.respLayer2.occupancy        6438535061                       # Layer occupancy (ticks)
system.tol2bus.respLayer2.utilization             1.0                       # Layer utilization (%)
system.tol2bus.snoopLayer0.occupancy            18014                       # Layer occupancy (ticks)
system.tol2bus.snoopLayer0.utilization            0.0                       # Layer utilization (%)

---------- End Simulation Statistics   ----------
