
---------- Begin Simulation Statistics ----------
final_tick                               1259749009000                       # Number of ticks from beginning of simulation (restored from checkpoints and never reset)
host_inst_rate                                  61937                       # Simulator instruction rate (inst/s)
host_mem_usage                                 702216                       # Number of bytes of host memory used
host_op_rate                                    62118                       # Simulator op (including micro ops) rate (op/s)
host_seconds                                 23194.61                       # Real time elapsed on the host
host_tick_rate                               54312134                       # Simulator tick rate (ticks/s)
sim_freq                                 1000000000000                       # Frequency of simulated ticks
sim_insts                                  1436602302                       # Number of instructions simulated
sim_ops                                    1440806058                       # Number of ops (including micro ops) simulated
sim_seconds                                  1.259749                       # Number of seconds simulated
sim_ticks                                1259749009000                       # Number of ticks simulated
system.cpu0.branchPred.BTBCorrect                   0                       # Number of correct BTB predictions (this stat may not work properly.
system.cpu0.branchPred.BTBHitPct            87.873442                       # BTB Hit Percentage
system.cpu0.branchPred.BTBHits              181390963                       # Number of BTB hits
system.cpu0.branchPred.BTBLookups           206422964                       # Number of BTB lookups
system.cpu0.branchPred.RASInCorrect                 0                       # Number of incorrect RAS predictions.
system.cpu0.branchPred.condIncorrect         18711606                       # Number of conditional branches incorrect
system.cpu0.branchPred.condPredicted        280633554                       # Number of conditional branches predicted
system.cpu0.branchPred.indirectHits          22313213                       # Number of indirect target hits.
system.cpu0.branchPred.indirectLookups       23839136                       # Number of indirect predictor lookups.
system.cpu0.branchPred.indirectMisses         1525923                       # Number of indirect misses.
system.cpu0.branchPred.lookups              354504751                       # Number of BP lookups
system.cpu0.branchPred.usedRAS                      0                       # Number of times the RAS was used to get a target.
system.cpu0.branchPredindirectMispredicted      2187827                       # Number of mispredicted indirect branches.
system.cpu0.commit.amos                       2100285                       # Number of atomic instructions committed
system.cpu0.commit.branchMispredicts         11481803                       # The number of times a branch was mispredicted
system.cpu0.commit.branches                 329545884                       # Number of branches committed
system.cpu0.commit.bw_lim_events             39463419                       # number cycles where commit BW limit reached
system.cpu0.commit.commitNonSpecStalls        6309762                       # The number of times commit has been forced to stall to communicate backwards
system.cpu0.commit.commitSquashedInsts       80772172                       # The number of squashed insts skipped by commit
system.cpu0.commit.committedInsts          1316550793                       # Number of instructions committed
system.cpu0.commit.committedOps            1318654369                       # Number of ops (including micro ops) committed
system.cpu0.commit.committed_per_cycle::samples   2335872320                       # Number of insts commited each cycle
system.cpu0.commit.committed_per_cycle::mean     0.564523                       # Number of insts commited each cycle
system.cpu0.commit.committed_per_cycle::stdev     1.334179                       # Number of insts commited each cycle
system.cpu0.commit.committed_per_cycle::underflows            0      0.00%      0.00% # Number of insts commited each cycle
system.cpu0.commit.committed_per_cycle::0   1698752915     72.72%     72.72% # Number of insts commited each cycle
system.cpu0.commit.committed_per_cycle::1    373347734     15.98%     88.71% # Number of insts commited each cycle
system.cpu0.commit.committed_per_cycle::2    107815239      4.62%     93.32% # Number of insts commited each cycle
system.cpu0.commit.committed_per_cycle::3     77371998      3.31%     96.64% # Number of insts commited each cycle
system.cpu0.commit.committed_per_cycle::4     22761456      0.97%     97.61% # Number of insts commited each cycle
system.cpu0.commit.committed_per_cycle::5      9078084      0.39%     98.00% # Number of insts commited each cycle
system.cpu0.commit.committed_per_cycle::6      5553758      0.24%     98.24% # Number of insts commited each cycle
system.cpu0.commit.committed_per_cycle::7      1727717      0.07%     98.31% # Number of insts commited each cycle
system.cpu0.commit.committed_per_cycle::8     39463419      1.69%    100.00% # Number of insts commited each cycle
system.cpu0.commit.committed_per_cycle::overflows            0      0.00%    100.00% # Number of insts commited each cycle
system.cpu0.commit.committed_per_cycle::min_value            0                       # Number of insts commited each cycle
system.cpu0.commit.committed_per_cycle::max_value            8                       # Number of insts commited each cycle
system.cpu0.commit.committed_per_cycle::total   2335872320                       # Number of insts commited each cycle
system.cpu0.commit.fp_insts                        46                       # Number of committed floating point instructions.
system.cpu0.commit.function_calls            25143410                       # Number of function calls committed.
system.cpu0.commit.int_insts               1273922521                       # Number of committed integer instructions.
system.cpu0.commit.loads                    405171236                       # Number of loads committed
system.cpu0.commit.membars                    4203741                       # Number of memory barriers committed
system.cpu0.commit.op_class_0::No_OpClass      4203747      0.32%      0.32% # Class of committed instruction
system.cpu0.commit.op_class_0::IntAlu       742063284     56.27%     56.59% # Class of committed instruction
system.cpu0.commit.op_class_0::IntMult       11831786      0.90%     57.49% # Class of committed instruction
system.cpu0.commit.op_class_0::IntDiv         2099835      0.16%     57.65% # Class of committed instruction
system.cpu0.commit.op_class_0::FloatAdd             0      0.00%     57.65% # Class of committed instruction
system.cpu0.commit.op_class_0::FloatCmp             4      0.00%     57.65% # Class of committed instruction
system.cpu0.commit.op_class_0::FloatCvt            12      0.00%     57.65% # Class of committed instruction
system.cpu0.commit.op_class_0::FloatMult            0      0.00%     57.65% # Class of committed instruction
system.cpu0.commit.op_class_0::FloatMultAcc            0      0.00%     57.65% # Class of committed instruction
system.cpu0.commit.op_class_0::FloatDiv             2      0.00%     57.65% # Class of committed instruction
system.cpu0.commit.op_class_0::FloatMisc            4      0.00%     57.65% # Class of committed instruction
system.cpu0.commit.op_class_0::FloatSqrt            0      0.00%     57.65% # Class of committed instruction
system.cpu0.commit.op_class_0::SimdAdd              0      0.00%     57.65% # Class of committed instruction
system.cpu0.commit.op_class_0::SimdAddAcc            0      0.00%     57.65% # Class of committed instruction
system.cpu0.commit.op_class_0::SimdAlu              0      0.00%     57.65% # Class of committed instruction
system.cpu0.commit.op_class_0::SimdCmp              0      0.00%     57.65% # Class of committed instruction
system.cpu0.commit.op_class_0::SimdCvt              0      0.00%     57.65% # Class of committed instruction
system.cpu0.commit.op_class_0::SimdMisc             0      0.00%     57.65% # Class of committed instruction
system.cpu0.commit.op_class_0::SimdMult             0      0.00%     57.65% # Class of committed instruction
system.cpu0.commit.op_class_0::SimdMultAcc            0      0.00%     57.65% # Class of committed instruction
system.cpu0.commit.op_class_0::SimdShift            0      0.00%     57.65% # Class of committed instruction
system.cpu0.commit.op_class_0::SimdShiftAcc            0      0.00%     57.65% # Class of committed instruction
system.cpu0.commit.op_class_0::SimdDiv              0      0.00%     57.65% # Class of committed instruction
system.cpu0.commit.op_class_0::SimdSqrt             0      0.00%     57.65% # Class of committed instruction
system.cpu0.commit.op_class_0::SimdFloatAdd            0      0.00%     57.65% # Class of committed instruction
system.cpu0.commit.op_class_0::SimdFloatAlu            0      0.00%     57.65% # Class of committed instruction
system.cpu0.commit.op_class_0::SimdFloatCmp            0      0.00%     57.65% # Class of committed instruction
system.cpu0.commit.op_class_0::SimdFloatCvt            0      0.00%     57.65% # Class of committed instruction
system.cpu0.commit.op_class_0::SimdFloatDiv            0      0.00%     57.65% # Class of committed instruction
system.cpu0.commit.op_class_0::SimdFloatMisc            0      0.00%     57.65% # Class of committed instruction
system.cpu0.commit.op_class_0::SimdFloatMult            0      0.00%     57.65% # Class of committed instruction
system.cpu0.commit.op_class_0::SimdFloatMultAcc            0      0.00%     57.65% # Class of committed instruction
system.cpu0.commit.op_class_0::SimdFloatSqrt            0      0.00%     57.65% # Class of committed instruction
system.cpu0.commit.op_class_0::SimdReduceAdd            0      0.00%     57.65% # Class of committed instruction
system.cpu0.commit.op_class_0::SimdReduceAlu            0      0.00%     57.65% # Class of committed instruction
system.cpu0.commit.op_class_0::SimdReduceCmp            0      0.00%     57.65% # Class of committed instruction
system.cpu0.commit.op_class_0::SimdFloatReduceAdd            0      0.00%     57.65% # Class of committed instruction
system.cpu0.commit.op_class_0::SimdFloatReduceCmp            0      0.00%     57.65% # Class of committed instruction
system.cpu0.commit.op_class_0::SimdAes              0      0.00%     57.65% # Class of committed instruction
system.cpu0.commit.op_class_0::SimdAesMix            0      0.00%     57.65% # Class of committed instruction
system.cpu0.commit.op_class_0::SimdSha1Hash            0      0.00%     57.65% # Class of committed instruction
system.cpu0.commit.op_class_0::SimdSha1Hash2            0      0.00%     57.65% # Class of committed instruction
system.cpu0.commit.op_class_0::SimdSha256Hash            0      0.00%     57.65% # Class of committed instruction
system.cpu0.commit.op_class_0::SimdSha256Hash2            0      0.00%     57.65% # Class of committed instruction
system.cpu0.commit.op_class_0::SimdShaSigma2            0      0.00%     57.65% # Class of committed instruction
system.cpu0.commit.op_class_0::SimdShaSigma3            0      0.00%     57.65% # Class of committed instruction
system.cpu0.commit.op_class_0::SimdPredAlu            0      0.00%     57.65% # Class of committed instruction
system.cpu0.commit.op_class_0::MemRead      407271513     30.89%     88.53% # Class of committed instruction
system.cpu0.commit.op_class_0::MemWrite     151184158     11.47%    100.00% # Class of committed instruction
system.cpu0.commit.op_class_0::FloatMemRead            8      0.00%    100.00% # Class of committed instruction
system.cpu0.commit.op_class_0::FloatMemWrite           16      0.00%    100.00% # Class of committed instruction
system.cpu0.commit.op_class_0::IprAccess            0      0.00%    100.00% # Class of committed instruction
system.cpu0.commit.op_class_0::InstPrefetch            0      0.00%    100.00% # Class of committed instruction
system.cpu0.commit.op_class_0::total       1318654369                       # Class of committed instruction
system.cpu0.commit.refs                     558455695                       # Number of memory references committed
system.cpu0.commit.swp_count                        0                       # Number of s/w prefetches committed
system.cpu0.commit.vec_insts                        0                       # Number of committed Vector instructions.
system.cpu0.committedInsts                 1316550793                       # Number of Instructions Simulated
system.cpu0.committedOps                   1318654369                       # Number of Ops (including micro ops) Simulated
system.cpu0.cpi                              1.911331                       # CPI: Cycles Per Instruction
system.cpu0.cpi_total                        1.911331                       # CPI: Total CPI of All Threads
system.cpu0.decode.BlockedCycles            447163569                       # Number of cycles decode is blocked
system.cpu0.decode.BranchMispred              7233969                       # Number of times decode detected a branch misprediction
system.cpu0.decode.BranchResolved           179850590                       # Number of times decode resolved a branch
system.cpu0.decode.DecodedInsts            1436093807                       # Number of instructions handled by decode
system.cpu0.decode.IdleCycles               905730497                       # Number of cycles decode is idle
system.cpu0.decode.RunCycles                983763143                       # Number of cycles decode is running
system.cpu0.decode.SquashCycles              11491288                       # Number of cycles decode is squashing
system.cpu0.decode.SquashedInsts             15039914                       # Number of squashed instructions handled by decode
system.cpu0.decode.UnblockCycles              6222214                       # Number of cycles decode is unblocking
system.cpu0.dtb.accesses                            0                       # DTB accesses
system.cpu0.dtb.hits                                0                       # DTB hits
system.cpu0.dtb.misses                              0                       # DTB misses
system.cpu0.dtb.read_accesses                       0                       # DTB read accesses
system.cpu0.dtb.read_hits                           0                       # DTB read hits
system.cpu0.dtb.read_misses                         0                       # DTB read misses
system.cpu0.dtb.write_accesses                      0                       # DTB write accesses
system.cpu0.dtb.write_hits                          0                       # DTB write hits
system.cpu0.dtb.write_misses                        0                       # DTB write misses
system.cpu0.fetch.Branches                  354504751                       # Number of branches that fetch encountered
system.cpu0.fetch.CacheLines                239231404                       # Number of cache lines fetched
system.cpu0.fetch.Cycles                   1437827109                       # Number of cycles fetch has run and was not squashing or blocked
system.cpu0.fetch.IcacheSquashes              4181982                       # Number of outstanding Icache misses that were squashed
system.cpu0.fetch.IcacheWaitRetryStallCycles           94                       # Number of stall cycles due to full MSHR
system.cpu0.fetch.Insts                    1469970621                       # Number of instructions fetch has processed
system.cpu0.fetch.MiscStallCycles                  29                       # Number of cycles fetch has spent waiting on interrupts, or bad addresses, or out of MSHRs
system.cpu0.fetch.PendingTrapStallCycles          120                       # Number of stall cycles due to pending traps
system.cpu0.fetch.SquashCycles               37442222                       # Number of cycles fetch has spent squashing
system.cpu0.fetch.branchRate                 0.140880                       # Number of branch fetches per cycle
system.cpu0.fetch.icacheStallCycles         897822248                       # Number of cycles fetch is stalled on an Icache miss
system.cpu0.fetch.predictedBranches         203704176                       # Number of branches that fetch has predicted taken
system.cpu0.fetch.rate                       0.584165                       # Number of inst fetches per cycle
system.cpu0.fetch.rateDist::samples        2354370711                       # Number of instructions fetched each cycle (Total)
system.cpu0.fetch.rateDist::mean             0.625822                       # Number of instructions fetched each cycle (Total)
system.cpu0.fetch.rateDist::stdev            0.912460                       # Number of instructions fetched each cycle (Total)
system.cpu0.fetch.rateDist::underflows              0      0.00%      0.00% # Number of instructions fetched each cycle (Total)
system.cpu0.fetch.rateDist::0              1322828954     56.19%     56.19% # Number of instructions fetched each cycle (Total)
system.cpu0.fetch.rateDist::1               762880040     32.40%     88.59% # Number of instructions fetched each cycle (Total)
system.cpu0.fetch.rateDist::2               142535527      6.05%     94.64% # Number of instructions fetched each cycle (Total)
system.cpu0.fetch.rateDist::3               101518658      4.31%     98.95% # Number of instructions fetched each cycle (Total)
system.cpu0.fetch.rateDist::4                13512112      0.57%     99.53% # Number of instructions fetched each cycle (Total)
system.cpu0.fetch.rateDist::5                 6017054      0.26%     99.78% # Number of instructions fetched each cycle (Total)
system.cpu0.fetch.rateDist::6                  874958      0.04%     99.82% # Number of instructions fetched each cycle (Total)
system.cpu0.fetch.rateDist::7                 2101300      0.09%     99.91% # Number of instructions fetched each cycle (Total)
system.cpu0.fetch.rateDist::8                 2102108      0.09%    100.00% # Number of instructions fetched each cycle (Total)
system.cpu0.fetch.rateDist::overflows               0      0.00%    100.00% # Number of instructions fetched each cycle (Total)
system.cpu0.fetch.rateDist::min_value               0                       # Number of instructions fetched each cycle (Total)
system.cpu0.fetch.rateDist::max_value               8                       # Number of instructions fetched each cycle (Total)
system.cpu0.fetch.rateDist::total          2354370711                       # Number of instructions fetched each cycle (Total)
system.cpu0.fp_regfile_reads                       40                       # number of floating regfile reads
system.cpu0.fp_regfile_writes                      23                       # number of floating regfile writes
system.cpu0.idleCycles                      161993320                       # Total number of cycles that the CPU has spent unscheduled due to idling
system.cpu0.iew.branchMispredicts            11581268                       # Number of branch mispredicts detected at execute
system.cpu0.iew.exec_branches               339459802                       # Number of branches executed
system.cpu0.iew.exec_nop                            0                       # number of nop insts executed
system.cpu0.iew.exec_rate                    0.548330                       # Inst execution rate
system.cpu0.iew.exec_refs                   594902557                       # number of memory reference insts executed
system.cpu0.iew.exec_stores                 159628397                       # Number of stores executed
system.cpu0.iew.exec_swp                            0                       # number of swp insts executed
system.cpu0.iew.iewBlockCycles              365856933                       # Number of cycles IEW is blocking
system.cpu0.iew.iewDispLoadInsts            439211428                       # Number of dispatched load instructions
system.cpu0.iew.iewDispNonSpecInsts           2717176                       # Number of dispatched non-speculative instructions
system.cpu0.iew.iewDispSquashedInsts          9558189                       # Number of squashed instructions skipped by dispatch
system.cpu0.iew.iewDispStoreInsts           161358493                       # Number of dispatched store instructions
system.cpu0.iew.iewDispatchedInsts         1399335819                       # Number of instructions dispatched to IQ
system.cpu0.iew.iewExecLoadInsts            435274160                       # Number of load instructions executed
system.cpu0.iew.iewExecSquashedInsts          4572524                       # Number of squashed instructions skipped in execute
system.cpu0.iew.iewExecutedInsts           1379798533                       # Number of executed instructions
system.cpu0.iew.iewIQFullEvents               1644034                       # Number of times the IQ has become full, causing a stall
system.cpu0.iew.iewIdleCycles                       0                       # Number of cycles IEW is idle
system.cpu0.iew.iewLSQFullEvents              9976859                       # Number of times the LSQ has become full, causing a stall
system.cpu0.iew.iewSquashCycles              11491288                       # Number of cycles IEW is squashing
system.cpu0.iew.iewUnblockCycles             14259868                       # Number of cycles IEW is unblocking
system.cpu0.iew.lsq.thread0.blockedLoads            0                       # Number of blocked loads due to partial load-store forwarding
system.cpu0.iew.lsq.thread0.cacheBlocked       198523                       # Number of times an access to memory failed due to the cache being blocked
system.cpu0.iew.lsq.thread0.forwLoads        25927199                       # Number of loads that had data forwarded from stores
system.cpu0.iew.lsq.thread0.ignoredResponses        50845                       # Number of memory responses ignored because the instruction is squashed
system.cpu0.iew.lsq.thread0.invAddrLoads            0                       # Number of loads ignored due to an invalid address
system.cpu0.iew.lsq.thread0.invAddrSwpfs            0                       # Number of software prefetches ignored due to an invalid address
system.cpu0.iew.lsq.thread0.memOrderViolation         8550                       # Number of memory ordering violations
system.cpu0.iew.lsq.thread0.rescheduledLoads      4728533                       # Number of loads that were rescheduled
system.cpu0.iew.lsq.thread0.squashedLoads     34040191                       # Number of loads squashed
system.cpu0.iew.lsq.thread0.squashedStores      8074034                       # Number of stores squashed
system.cpu0.iew.memOrderViolationEvents          8550                       # Number of memory order violations
system.cpu0.iew.predictedNotTakenIncorrect      1159028                       # Number of branches that were predicted not taken incorrectly
system.cpu0.iew.predictedTakenIncorrect      10422240                       # Number of branches that were predicted taken incorrectly
system.cpu0.iew.wb_consumers                637273077                       # num instructions consuming a value
system.cpu0.iew.wb_count                   1369242256                       # cumulative count of insts written-back
system.cpu0.iew.wb_fanout                    0.832561                       # average fanout of values written-back
system.cpu0.iew.wb_producers                530568811                       # num instructions producing a value
system.cpu0.iew.wb_rate                      0.544135                       # insts written-back per cycle
system.cpu0.iew.wb_sent                    1369341212                       # cumulative count of insts sent to commit
system.cpu0.int_regfile_reads              1695187520                       # number of integer regfile reads
system.cpu0.int_regfile_writes              880041666                       # number of integer regfile writes
system.cpu0.ipc                              0.523196                       # IPC: Instructions Per Cycle
system.cpu0.ipc_total                        0.523196                       # IPC: Total IPC of All Threads
system.cpu0.iq.FU_type_0::No_OpClass          4205629      0.30%      0.30% # Type of FU issued
system.cpu0.iq.FU_type_0::IntAlu            769593487     55.59%     55.90% # Type of FU issued
system.cpu0.iq.FU_type_0::IntMult            11847063      0.86%     56.75% # Type of FU issued
system.cpu0.iq.FU_type_0::IntDiv              2100424      0.15%     56.90% # Type of FU issued
system.cpu0.iq.FU_type_0::FloatAdd                  0      0.00%     56.90% # Type of FU issued
system.cpu0.iq.FU_type_0::FloatCmp                  4      0.00%     56.90% # Type of FU issued
system.cpu0.iq.FU_type_0::FloatCvt                 12      0.00%     56.90% # Type of FU issued
system.cpu0.iq.FU_type_0::FloatMult                 0      0.00%     56.90% # Type of FU issued
system.cpu0.iq.FU_type_0::FloatMultAcc              0      0.00%     56.90% # Type of FU issued
system.cpu0.iq.FU_type_0::FloatDiv                  2      0.00%     56.90% # Type of FU issued
system.cpu0.iq.FU_type_0::FloatMisc                 4      0.00%     56.90% # Type of FU issued
system.cpu0.iq.FU_type_0::FloatSqrt                 0      0.00%     56.90% # Type of FU issued
system.cpu0.iq.FU_type_0::SimdAdd                   0      0.00%     56.90% # Type of FU issued
system.cpu0.iq.FU_type_0::SimdAddAcc                0      0.00%     56.90% # Type of FU issued
system.cpu0.iq.FU_type_0::SimdAlu                   0      0.00%     56.90% # Type of FU issued
system.cpu0.iq.FU_type_0::SimdCmp                   0      0.00%     56.90% # Type of FU issued
system.cpu0.iq.FU_type_0::SimdCvt                   0      0.00%     56.90% # Type of FU issued
system.cpu0.iq.FU_type_0::SimdMisc                  0      0.00%     56.90% # Type of FU issued
system.cpu0.iq.FU_type_0::SimdMult                  0      0.00%     56.90% # Type of FU issued
system.cpu0.iq.FU_type_0::SimdMultAcc               0      0.00%     56.90% # Type of FU issued
system.cpu0.iq.FU_type_0::SimdShift                 0      0.00%     56.90% # Type of FU issued
system.cpu0.iq.FU_type_0::SimdShiftAcc              0      0.00%     56.90% # Type of FU issued
system.cpu0.iq.FU_type_0::SimdDiv                   0      0.00%     56.90% # Type of FU issued
system.cpu0.iq.FU_type_0::SimdSqrt                  0      0.00%     56.90% # Type of FU issued
system.cpu0.iq.FU_type_0::SimdFloatAdd              0      0.00%     56.90% # Type of FU issued
system.cpu0.iq.FU_type_0::SimdFloatAlu              0      0.00%     56.90% # Type of FU issued
system.cpu0.iq.FU_type_0::SimdFloatCmp              0      0.00%     56.90% # Type of FU issued
system.cpu0.iq.FU_type_0::SimdFloatCvt              0      0.00%     56.90% # Type of FU issued
system.cpu0.iq.FU_type_0::SimdFloatDiv              0      0.00%     56.90% # Type of FU issued
system.cpu0.iq.FU_type_0::SimdFloatMisc             0      0.00%     56.90% # Type of FU issued
system.cpu0.iq.FU_type_0::SimdFloatMult             0      0.00%     56.90% # Type of FU issued
system.cpu0.iq.FU_type_0::SimdFloatMultAcc            0      0.00%     56.90% # Type of FU issued
system.cpu0.iq.FU_type_0::SimdFloatSqrt             0      0.00%     56.90% # Type of FU issued
system.cpu0.iq.FU_type_0::SimdReduceAdd             0      0.00%     56.90% # Type of FU issued
system.cpu0.iq.FU_type_0::SimdReduceAlu             0      0.00%     56.90% # Type of FU issued
system.cpu0.iq.FU_type_0::SimdReduceCmp             0      0.00%     56.90% # Type of FU issued
system.cpu0.iq.FU_type_0::SimdFloatReduceAdd            0      0.00%     56.90% # Type of FU issued
system.cpu0.iq.FU_type_0::SimdFloatReduceCmp            0      0.00%     56.90% # Type of FU issued
system.cpu0.iq.FU_type_0::SimdAes                   0      0.00%     56.90% # Type of FU issued
system.cpu0.iq.FU_type_0::SimdAesMix                0      0.00%     56.90% # Type of FU issued
system.cpu0.iq.FU_type_0::SimdSha1Hash              0      0.00%     56.90% # Type of FU issued
system.cpu0.iq.FU_type_0::SimdSha1Hash2             0      0.00%     56.90% # Type of FU issued
system.cpu0.iq.FU_type_0::SimdSha256Hash            0      0.00%     56.90% # Type of FU issued
system.cpu0.iq.FU_type_0::SimdSha256Hash2            0      0.00%     56.90% # Type of FU issued
system.cpu0.iq.FU_type_0::SimdShaSigma2             0      0.00%     56.90% # Type of FU issued
system.cpu0.iq.FU_type_0::SimdShaSigma3             0      0.00%     56.90% # Type of FU issued
system.cpu0.iq.FU_type_0::SimdPredAlu               0      0.00%     56.90% # Type of FU issued
system.cpu0.iq.FU_type_0::MemRead           438964376     31.71%     88.61% # Type of FU issued
system.cpu0.iq.FU_type_0::MemWrite          157660033     11.39%    100.00% # Type of FU issued
system.cpu0.iq.FU_type_0::FloatMemRead              9      0.00%    100.00% # Type of FU issued
system.cpu0.iq.FU_type_0::FloatMemWrite            16      0.00%    100.00% # Type of FU issued
system.cpu0.iq.FU_type_0::IprAccess                 0      0.00%    100.00% # Type of FU issued
system.cpu0.iq.FU_type_0::InstPrefetch              0      0.00%    100.00% # Type of FU issued
system.cpu0.iq.FU_type_0::total            1384371059                       # Type of FU issued
system.cpu0.iq.fp_alu_accesses                     50                       # Number of floating point alu accesses
system.cpu0.iq.fp_inst_queue_reads                 97                       # Number of floating instruction queue reads
system.cpu0.iq.fp_inst_queue_wakeup_accesses           47                       # Number of floating instruction queue wakeup accesses
system.cpu0.iq.fp_inst_queue_writes                48                       # Number of floating instruction queue writes
system.cpu0.iq.fu_busy_cnt                    3708642                       # FU busy when requested
system.cpu0.iq.fu_busy_rate                  0.002679                       # FU busy rate (busy events/executed inst)
system.cpu0.iq.fu_full::No_OpClass                  0      0.00%      0.00% # attempts to use FU when none available
system.cpu0.iq.fu_full::IntAlu                1174322     31.66%     31.66% # attempts to use FU when none available
system.cpu0.iq.fu_full::IntMult                     0      0.00%     31.66% # attempts to use FU when none available
system.cpu0.iq.fu_full::IntDiv                      0      0.00%     31.66% # attempts to use FU when none available
system.cpu0.iq.fu_full::FloatAdd                    0      0.00%     31.66% # attempts to use FU when none available
system.cpu0.iq.fu_full::FloatCmp                    0      0.00%     31.66% # attempts to use FU when none available
system.cpu0.iq.fu_full::FloatCvt                    0      0.00%     31.66% # attempts to use FU when none available
system.cpu0.iq.fu_full::FloatMult                   0      0.00%     31.66% # attempts to use FU when none available
system.cpu0.iq.fu_full::FloatMultAcc                0      0.00%     31.66% # attempts to use FU when none available
system.cpu0.iq.fu_full::FloatDiv                    0      0.00%     31.66% # attempts to use FU when none available
system.cpu0.iq.fu_full::FloatMisc                   0      0.00%     31.66% # attempts to use FU when none available
system.cpu0.iq.fu_full::FloatSqrt                   0      0.00%     31.66% # attempts to use FU when none available
system.cpu0.iq.fu_full::SimdAdd                     0      0.00%     31.66% # attempts to use FU when none available
system.cpu0.iq.fu_full::SimdAddAcc                  0      0.00%     31.66% # attempts to use FU when none available
system.cpu0.iq.fu_full::SimdAlu                     0      0.00%     31.66% # attempts to use FU when none available
system.cpu0.iq.fu_full::SimdCmp                     0      0.00%     31.66% # attempts to use FU when none available
system.cpu0.iq.fu_full::SimdCvt                     0      0.00%     31.66% # attempts to use FU when none available
system.cpu0.iq.fu_full::SimdMisc                    0      0.00%     31.66% # attempts to use FU when none available
system.cpu0.iq.fu_full::SimdMult                    0      0.00%     31.66% # attempts to use FU when none available
system.cpu0.iq.fu_full::SimdMultAcc                 0      0.00%     31.66% # attempts to use FU when none available
system.cpu0.iq.fu_full::SimdShift                   0      0.00%     31.66% # attempts to use FU when none available
system.cpu0.iq.fu_full::SimdShiftAcc                0      0.00%     31.66% # attempts to use FU when none available
system.cpu0.iq.fu_full::SimdDiv                     0      0.00%     31.66% # attempts to use FU when none available
system.cpu0.iq.fu_full::SimdSqrt                    0      0.00%     31.66% # attempts to use FU when none available
system.cpu0.iq.fu_full::SimdFloatAdd                0      0.00%     31.66% # attempts to use FU when none available
system.cpu0.iq.fu_full::SimdFloatAlu                0      0.00%     31.66% # attempts to use FU when none available
system.cpu0.iq.fu_full::SimdFloatCmp                0      0.00%     31.66% # attempts to use FU when none available
system.cpu0.iq.fu_full::SimdFloatCvt                0      0.00%     31.66% # attempts to use FU when none available
system.cpu0.iq.fu_full::SimdFloatDiv                0      0.00%     31.66% # attempts to use FU when none available
system.cpu0.iq.fu_full::SimdFloatMisc               0      0.00%     31.66% # attempts to use FU when none available
system.cpu0.iq.fu_full::SimdFloatMult               0      0.00%     31.66% # attempts to use FU when none available
system.cpu0.iq.fu_full::SimdFloatMultAcc            0      0.00%     31.66% # attempts to use FU when none available
system.cpu0.iq.fu_full::SimdFloatSqrt               0      0.00%     31.66% # attempts to use FU when none available
system.cpu0.iq.fu_full::SimdReduceAdd               0      0.00%     31.66% # attempts to use FU when none available
system.cpu0.iq.fu_full::SimdReduceAlu               0      0.00%     31.66% # attempts to use FU when none available
system.cpu0.iq.fu_full::SimdReduceCmp               0      0.00%     31.66% # attempts to use FU when none available
system.cpu0.iq.fu_full::SimdFloatReduceAdd            0      0.00%     31.66% # attempts to use FU when none available
system.cpu0.iq.fu_full::SimdFloatReduceCmp            0      0.00%     31.66% # attempts to use FU when none available
system.cpu0.iq.fu_full::SimdAes                     0      0.00%     31.66% # attempts to use FU when none available
system.cpu0.iq.fu_full::SimdAesMix                  0      0.00%     31.66% # attempts to use FU when none available
system.cpu0.iq.fu_full::SimdSha1Hash                0      0.00%     31.66% # attempts to use FU when none available
system.cpu0.iq.fu_full::SimdSha1Hash2               0      0.00%     31.66% # attempts to use FU when none available
system.cpu0.iq.fu_full::SimdSha256Hash              0      0.00%     31.66% # attempts to use FU when none available
system.cpu0.iq.fu_full::SimdSha256Hash2             0      0.00%     31.66% # attempts to use FU when none available
system.cpu0.iq.fu_full::SimdShaSigma2               0      0.00%     31.66% # attempts to use FU when none available
system.cpu0.iq.fu_full::SimdShaSigma3               0      0.00%     31.66% # attempts to use FU when none available
system.cpu0.iq.fu_full::SimdPredAlu                 0      0.00%     31.66% # attempts to use FU when none available
system.cpu0.iq.fu_full::MemRead               1989063     53.63%     85.30% # attempts to use FU when none available
system.cpu0.iq.fu_full::MemWrite               545254     14.70%    100.00% # attempts to use FU when none available
system.cpu0.iq.fu_full::FloatMemRead                0      0.00%    100.00% # attempts to use FU when none available
system.cpu0.iq.fu_full::FloatMemWrite               3      0.00%    100.00% # attempts to use FU when none available
system.cpu0.iq.fu_full::IprAccess                   0      0.00%    100.00% # attempts to use FU when none available
system.cpu0.iq.fu_full::InstPrefetch                0      0.00%    100.00% # attempts to use FU when none available
system.cpu0.iq.int_alu_accesses            1383874022                       # Number of integer alu accesses
system.cpu0.iq.int_inst_queue_reads        5127014571                       # Number of integer instruction queue reads
system.cpu0.iq.int_inst_queue_wakeup_accesses   1369242209                       # Number of integer instruction queue wakeup accesses
system.cpu0.iq.int_inst_queue_writes       1480025310                       # Number of integer instruction queue writes
system.cpu0.iq.iqInstsAdded                1391243245                       # Number of instructions added to the IQ (excludes non-spec)
system.cpu0.iq.iqInstsIssued               1384371059                       # Number of instructions issued
system.cpu0.iq.iqNonSpecInstsAdded            8092574                       # Number of non-speculative instructions added to the IQ
system.cpu0.iq.iqSquashedInstsExamined       80681443                       # Number of squashed instructions iterated over during squash; mainly for profiling
system.cpu0.iq.iqSquashedInstsIssued           193199                       # Number of squashed instructions issued
system.cpu0.iq.iqSquashedNonSpecRemoved       1782812                       # Number of squashed non-spec instructions that were removed
system.cpu0.iq.iqSquashedOperandsExamined     30772293                       # Number of squashed operands that are examined and possibly removed from graph
system.cpu0.iq.issued_per_cycle::samples   2354370711                       # Number of insts issued each cycle
system.cpu0.iq.issued_per_cycle::mean        0.588000                       # Number of insts issued each cycle
system.cpu0.iq.issued_per_cycle::stdev       0.851841                       # Number of insts issued each cycle
system.cpu0.iq.issued_per_cycle::underflows            0      0.00%      0.00% # Number of insts issued each cycle
system.cpu0.iq.issued_per_cycle::0         1381877325     58.69%     58.69% # Number of insts issued each cycle
system.cpu0.iq.issued_per_cycle::1          670663610     28.49%     87.18% # Number of insts issued each cycle
system.cpu0.iq.issued_per_cycle::2          220382234      9.36%     96.54% # Number of insts issued each cycle
system.cpu0.iq.issued_per_cycle::3           64201890      2.73%     99.27% # Number of insts issued each cycle
system.cpu0.iq.issued_per_cycle::4           11182704      0.47%     99.74% # Number of insts issued each cycle
system.cpu0.iq.issued_per_cycle::5            2373767      0.10%     99.84% # Number of insts issued each cycle
system.cpu0.iq.issued_per_cycle::6            2335385      0.10%     99.94% # Number of insts issued each cycle
system.cpu0.iq.issued_per_cycle::7            1105018      0.05%     99.99% # Number of insts issued each cycle
system.cpu0.iq.issued_per_cycle::8             248778      0.01%    100.00% # Number of insts issued each cycle
system.cpu0.iq.issued_per_cycle::overflows            0      0.00%    100.00% # Number of insts issued each cycle
system.cpu0.iq.issued_per_cycle::min_value            0                       # Number of insts issued each cycle
system.cpu0.iq.issued_per_cycle::max_value            8                       # Number of insts issued each cycle
system.cpu0.iq.issued_per_cycle::total     2354370711                       # Number of insts issued each cycle
system.cpu0.iq.rate                          0.550147                       # Inst issue rate
system.cpu0.iq.vec_alu_accesses                     0                       # Number of vector alu accesses
system.cpu0.iq.vec_inst_queue_reads                 0                       # Number of vector instruction queue reads
system.cpu0.iq.vec_inst_queue_wakeup_accesses            0                       # Number of vector instruction queue wakeup accesses
system.cpu0.iq.vec_inst_queue_writes                0                       # Number of vector instruction queue writes
system.cpu0.itb.accesses                            0                       # DTB accesses
system.cpu0.itb.hits                                0                       # DTB hits
system.cpu0.itb.misses                              0                       # DTB misses
system.cpu0.itb.read_accesses                       0                       # DTB read accesses
system.cpu0.itb.read_hits                           0                       # DTB read hits
system.cpu0.itb.read_misses                         0                       # DTB read misses
system.cpu0.itb.write_accesses                      0                       # DTB write accesses
system.cpu0.itb.write_hits                          0                       # DTB write hits
system.cpu0.itb.write_misses                        0                       # DTB write misses
system.cpu0.memDep0.conflictingLoads         23210582                       # Number of conflicting loads.
system.cpu0.memDep0.conflictingStores         1986206                       # Number of conflicting stores.
system.cpu0.memDep0.insertedLoads           439211428                       # Number of loads inserted to the mem dependence unit.
system.cpu0.memDep0.insertedStores          161358493                       # Number of stores inserted to the mem dependence unit.
system.cpu0.misc_regfile_reads                   1895                       # number of misc regfile reads
system.cpu0.misc_regfile_writes                    22                       # number of misc regfile writes
system.cpu0.numCycles                      2516364031                       # number of cpu cycles simulated
system.cpu0.numWorkItemsCompleted                   0                       # number of work items this cpu completed
system.cpu0.numWorkItemsStarted                     0                       # number of work items this cpu started
system.cpu0.quiesceCycles                     3134214                       # Total number of cycles that CPU has spent quiesced or waiting for an interrupt
system.cpu0.rename.BlockCycles              391930460                       # Number of cycles rename is blocking
system.cpu0.rename.CommittedMaps            845197589                       # Number of HB maps that are committed
system.cpu0.rename.IQFullEvents              11327045                       # Number of times rename has blocked due to IQ full
system.cpu0.rename.IdleCycles               921399136                       # Number of cycles rename is idle
system.cpu0.rename.LQFullEvents              18483821                       # Number of times rename has blocked due to LQ full
system.cpu0.rename.ROBFullEvents                22992                       # Number of times rename has blocked due to ROB full
system.cpu0.rename.RenameLookups           1747874428                       # Number of register rename lookups that rename has made
system.cpu0.rename.RenamedInsts            1423264838                       # Number of instructions processed by rename
system.cpu0.rename.RenamedOperands          923048129                       # Number of destination operands rename has renamed
system.cpu0.rename.RunCycles                972737178                       # Number of cycles rename is running
system.cpu0.rename.SQFullEvents              26086341                       # Number of times rename has blocked due to SQ full
system.cpu0.rename.SquashCycles              11491288                       # Number of cycles rename is squashing
system.cpu0.rename.UnblockCycles             56650686                       # Number of cycles rename is unblocking
system.cpu0.rename.UndoneMaps                77850529                       # Number of HB maps that are undone due to squashing
system.cpu0.rename.fp_rename_lookups               40                       # Number of floating rename lookups
system.cpu0.rename.int_rename_lookups      1747874388                       # Number of integer rename lookups
system.cpu0.rename.serializeStallCycles        161963                       # count of cycles rename stalled for serializing inst
system.cpu0.rename.serializingInsts              5857                       # count of serializing insts renamed
system.cpu0.rename.skidInsts                 28616661                       # count of insts added to the skid buffer
system.cpu0.rename.tempSerializingInsts          5854                       # count of temporary serializing insts renamed
system.cpu0.rob.rob_reads                  3695811275                       # The number of ROB reads
system.cpu0.rob.rob_writes                 2817380247                       # The number of ROB writes
system.cpu0.timesIdled                       25254328                       # Number of times that the entire CPU went into an idle state and unscheduled itself
system.cpu0.workload.numSyscalls                 1862                       # Number of system calls
system.cpu1.branchPred.BTBCorrect                   0                       # Number of correct BTB predictions (this stat may not work properly.
system.cpu1.branchPred.BTBHitPct            86.700274                       # BTB Hit Percentage
system.cpu1.branchPred.BTBHits               20630945                       # Number of BTB hits
system.cpu1.branchPred.BTBLookups            23795709                       # Number of BTB lookups
system.cpu1.branchPred.RASInCorrect                 0                       # Number of incorrect RAS predictions.
system.cpu1.branchPred.condIncorrect          2776398                       # Number of conditional branches incorrect
system.cpu1.branchPred.condPredicted         30653316                       # Number of conditional branches predicted
system.cpu1.branchPred.indirectHits           1071373                       # Number of indirect target hits.
system.cpu1.branchPred.indirectLookups        1091605                       # Number of indirect predictor lookups.
system.cpu1.branchPred.indirectMisses           20232                       # Number of indirect misses.
system.cpu1.branchPred.lookups               35205468                       # Number of BP lookups
system.cpu1.branchPred.usedRAS                      0                       # Number of times the RAS was used to get a target.
system.cpu1.branchPredindirectMispredicted        47947                       # Number of mispredicted indirect branches.
system.cpu1.commit.amos                       2100001                       # Number of atomic instructions committed
system.cpu1.commit.branchMispredicts          1973770                       # The number of times a branch was mispredicted
system.cpu1.commit.branches                  28116605                       # Number of branches committed
system.cpu1.commit.bw_lim_events              3827433                       # number cycles where commit BW limit reached
system.cpu1.commit.commitNonSpecStalls        6300676                       # The number of times commit has been forced to stall to communicate backwards
system.cpu1.commit.commitSquashedInsts       15755740                       # The number of squashed insts skipped by commit
system.cpu1.commit.committedInsts           120051509                       # Number of instructions committed
system.cpu1.commit.committedOps             122151689                       # Number of ops (including micro ops) committed
system.cpu1.commit.committed_per_cycle::samples    466753814                       # Number of insts commited each cycle
system.cpu1.commit.committed_per_cycle::mean     0.261705                       # Number of insts commited each cycle
system.cpu1.commit.committed_per_cycle::stdev     1.020558                       # Number of insts commited each cycle
system.cpu1.commit.committed_per_cycle::underflows            0      0.00%      0.00% # Number of insts commited each cycle
system.cpu1.commit.committed_per_cycle::0    416690071     89.27%     89.27% # Number of insts commited each cycle
system.cpu1.commit.committed_per_cycle::1     25347989      5.43%     94.70% # Number of insts commited each cycle
system.cpu1.commit.committed_per_cycle::2      8033688      1.72%     96.43% # Number of insts commited each cycle
system.cpu1.commit.committed_per_cycle::3      7529049      1.61%     98.04% # Number of insts commited each cycle
system.cpu1.commit.committed_per_cycle::4      2039507      0.44%     98.48% # Number of insts commited each cycle
system.cpu1.commit.committed_per_cycle::5       730427      0.16%     98.63% # Number of insts commited each cycle
system.cpu1.commit.committed_per_cycle::6      2170000      0.46%     99.10% # Number of insts commited each cycle
system.cpu1.commit.committed_per_cycle::7       385650      0.08%     99.18% # Number of insts commited each cycle
system.cpu1.commit.committed_per_cycle::8      3827433      0.82%    100.00% # Number of insts commited each cycle
system.cpu1.commit.committed_per_cycle::overflows            0      0.00%    100.00% # Number of insts commited each cycle
system.cpu1.commit.committed_per_cycle::min_value            0                       # Number of insts commited each cycle
system.cpu1.commit.committed_per_cycle::max_value            8                       # Number of insts commited each cycle
system.cpu1.commit.committed_per_cycle::total    466753814                       # Number of insts commited each cycle
system.cpu1.commit.fp_insts                        12                       # Number of committed floating point instructions.
system.cpu1.commit.function_calls             1797623                       # Number of function calls committed.
system.cpu1.commit.int_insts                116589049                       # Number of committed integer instructions.
system.cpu1.commit.loads                     30173757                       # Number of loads committed
system.cpu1.commit.membars                    4200118                       # Number of memory barriers committed
system.cpu1.commit.op_class_0::No_OpClass      4200118      3.44%      3.44% # Class of committed instruction
system.cpu1.commit.op_class_0::IntAlu        76658467     62.76%     66.20% # Class of committed instruction
system.cpu1.commit.op_class_0::IntMult             44      0.00%     66.20% # Class of committed instruction
system.cpu1.commit.op_class_0::IntDiv              88      0.00%     66.20% # Class of committed instruction
system.cpu1.commit.op_class_0::FloatAdd             0      0.00%     66.20% # Class of committed instruction
system.cpu1.commit.op_class_0::FloatCmp             0      0.00%     66.20% # Class of committed instruction
system.cpu1.commit.op_class_0::FloatCvt             0      0.00%     66.20% # Class of committed instruction
system.cpu1.commit.op_class_0::FloatMult            0      0.00%     66.20% # Class of committed instruction
system.cpu1.commit.op_class_0::FloatMultAcc            0      0.00%     66.20% # Class of committed instruction
system.cpu1.commit.op_class_0::FloatDiv             0      0.00%     66.20% # Class of committed instruction
system.cpu1.commit.op_class_0::FloatMisc            0      0.00%     66.20% # Class of committed instruction
system.cpu1.commit.op_class_0::FloatSqrt            0      0.00%     66.20% # Class of committed instruction
system.cpu1.commit.op_class_0::SimdAdd              0      0.00%     66.20% # Class of committed instruction
system.cpu1.commit.op_class_0::SimdAddAcc            0      0.00%     66.20% # Class of committed instruction
system.cpu1.commit.op_class_0::SimdAlu              0      0.00%     66.20% # Class of committed instruction
system.cpu1.commit.op_class_0::SimdCmp              0      0.00%     66.20% # Class of committed instruction
system.cpu1.commit.op_class_0::SimdCvt              0      0.00%     66.20% # Class of committed instruction
system.cpu1.commit.op_class_0::SimdMisc             0      0.00%     66.20% # Class of committed instruction
system.cpu1.commit.op_class_0::SimdMult             0      0.00%     66.20% # Class of committed instruction
system.cpu1.commit.op_class_0::SimdMultAcc            0      0.00%     66.20% # Class of committed instruction
system.cpu1.commit.op_class_0::SimdShift            0      0.00%     66.20% # Class of committed instruction
system.cpu1.commit.op_class_0::SimdShiftAcc            0      0.00%     66.20% # Class of committed instruction
system.cpu1.commit.op_class_0::SimdDiv              0      0.00%     66.20% # Class of committed instruction
system.cpu1.commit.op_class_0::SimdSqrt             0      0.00%     66.20% # Class of committed instruction
system.cpu1.commit.op_class_0::SimdFloatAdd            0      0.00%     66.20% # Class of committed instruction
system.cpu1.commit.op_class_0::SimdFloatAlu            0      0.00%     66.20% # Class of committed instruction
system.cpu1.commit.op_class_0::SimdFloatCmp            0      0.00%     66.20% # Class of committed instruction
system.cpu1.commit.op_class_0::SimdFloatCvt            0      0.00%     66.20% # Class of committed instruction
system.cpu1.commit.op_class_0::SimdFloatDiv            0      0.00%     66.20% # Class of committed instruction
system.cpu1.commit.op_class_0::SimdFloatMisc            0      0.00%     66.20% # Class of committed instruction
system.cpu1.commit.op_class_0::SimdFloatMult            0      0.00%     66.20% # Class of committed instruction
system.cpu1.commit.op_class_0::SimdFloatMultAcc            0      0.00%     66.20% # Class of committed instruction
system.cpu1.commit.op_class_0::SimdFloatSqrt            0      0.00%     66.20% # Class of committed instruction
system.cpu1.commit.op_class_0::SimdReduceAdd            0      0.00%     66.20% # Class of committed instruction
system.cpu1.commit.op_class_0::SimdReduceAlu            0      0.00%     66.20% # Class of committed instruction
system.cpu1.commit.op_class_0::SimdReduceCmp            0      0.00%     66.20% # Class of committed instruction
system.cpu1.commit.op_class_0::SimdFloatReduceAdd            0      0.00%     66.20% # Class of committed instruction
system.cpu1.commit.op_class_0::SimdFloatReduceCmp            0      0.00%     66.20% # Class of committed instruction
system.cpu1.commit.op_class_0::SimdAes              0      0.00%     66.20% # Class of committed instruction
system.cpu1.commit.op_class_0::SimdAesMix            0      0.00%     66.20% # Class of committed instruction
system.cpu1.commit.op_class_0::SimdSha1Hash            0      0.00%     66.20% # Class of committed instruction
system.cpu1.commit.op_class_0::SimdSha1Hash2            0      0.00%     66.20% # Class of committed instruction
system.cpu1.commit.op_class_0::SimdSha256Hash            0      0.00%     66.20% # Class of committed instruction
system.cpu1.commit.op_class_0::SimdSha256Hash2            0      0.00%     66.20% # Class of committed instruction
system.cpu1.commit.op_class_0::SimdShaSigma2            0      0.00%     66.20% # Class of committed instruction
system.cpu1.commit.op_class_0::SimdShaSigma3            0      0.00%     66.20% # Class of committed instruction
system.cpu1.commit.op_class_0::SimdPredAlu            0      0.00%     66.20% # Class of committed instruction
system.cpu1.commit.op_class_0::MemRead       32273758     26.42%     92.62% # Class of committed instruction
system.cpu1.commit.op_class_0::MemWrite       9019202      7.38%    100.00% # Class of committed instruction
system.cpu1.commit.op_class_0::FloatMemRead            0      0.00%    100.00% # Class of committed instruction
system.cpu1.commit.op_class_0::FloatMemWrite           12      0.00%    100.00% # Class of committed instruction
system.cpu1.commit.op_class_0::IprAccess            0      0.00%    100.00% # Class of committed instruction
system.cpu1.commit.op_class_0::InstPrefetch            0      0.00%    100.00% # Class of committed instruction
system.cpu1.commit.op_class_0::total        122151689                       # Class of committed instruction
system.cpu1.commit.refs                      41292972                       # Number of memory references committed
system.cpu1.commit.swp_count                        0                       # Number of s/w prefetches committed
system.cpu1.commit.vec_insts                        0                       # Number of committed Vector instructions.
system.cpu1.committedInsts                  120051509                       # Number of Instructions Simulated
system.cpu1.committedOps                    122151689                       # Number of Ops (including micro ops) Simulated
system.cpu1.cpi                              3.929476                       # CPI: Cycles Per Instruction
system.cpu1.cpi_total                        3.929476                       # CPI: Total CPI of All Threads
system.cpu1.decode.BlockedCycles            376078591                       # Number of cycles decode is blocked
system.cpu1.decode.BranchMispred               805508                       # Number of times decode detected a branch misprediction
system.cpu1.decode.BranchResolved            19616742                       # Number of times decode resolved a branch
system.cpu1.decode.DecodedInsts             145332270                       # Number of instructions handled by decode
system.cpu1.decode.IdleCycles                21987288                       # Number of cycles decode is idle
system.cpu1.decode.RunCycles                 64886711                       # Number of cycles decode is running
system.cpu1.decode.SquashCycles               1975125                       # Number of cycles decode is squashing
system.cpu1.decode.SquashedInsts              1336569                       # Number of squashed instructions handled by decode
system.cpu1.decode.UnblockCycles              5089739                       # Number of cycles decode is unblocking
system.cpu1.dtb.accesses                            0                       # DTB accesses
system.cpu1.dtb.hits                                0                       # DTB hits
system.cpu1.dtb.misses                              0                       # DTB misses
system.cpu1.dtb.read_accesses                       0                       # DTB read accesses
system.cpu1.dtb.read_hits                           0                       # DTB read hits
system.cpu1.dtb.read_misses                         0                       # DTB read misses
system.cpu1.dtb.write_accesses                      0                       # DTB write accesses
system.cpu1.dtb.write_hits                          0                       # DTB write hits
system.cpu1.dtb.write_misses                        0                       # DTB write misses
system.cpu1.fetch.Branches                   35205468                       # Number of branches that fetch encountered
system.cpu1.fetch.CacheLines                 20692037                       # Number of cache lines fetched
system.cpu1.fetch.Cycles                    444618787                       # Number of cycles fetch has run and was not squashing or blocked
system.cpu1.fetch.IcacheSquashes               405909                       # Number of outstanding Icache misses that were squashed
system.cpu1.fetch.Insts                     150269801                       # Number of instructions fetch has processed
system.cpu1.fetch.MiscStallCycles                   1                       # Number of cycles fetch has spent waiting on interrupts, or bad addresses, or out of MSHRs
system.cpu1.fetch.SquashCycles                5555506                       # Number of cycles fetch has spent squashing
system.cpu1.fetch.branchRate                 0.074629                       # Number of branch fetches per cycle
system.cpu1.fetch.icacheStallCycles          22620913                       # Number of cycles fetch is stalled on an Icache miss
system.cpu1.fetch.predictedBranches          21702318                       # Number of branches that fetch has predicted taken
system.cpu1.fetch.rate                       0.318544                       # Number of inst fetches per cycle
system.cpu1.fetch.rateDist::samples         470017454                       # Number of instructions fetched each cycle (Total)
system.cpu1.fetch.rateDist::mean             0.324181                       # Number of instructions fetched each cycle (Total)
system.cpu1.fetch.rateDist::stdev            0.767739                       # Number of instructions fetched each cycle (Total)
system.cpu1.fetch.rateDist::underflows              0      0.00%      0.00% # Number of instructions fetched each cycle (Total)
system.cpu1.fetch.rateDist::0               374071580     79.59%     79.59% # Number of instructions fetched each cycle (Total)
system.cpu1.fetch.rateDist::1                62179355     13.23%     92.82% # Number of instructions fetched each cycle (Total)
system.cpu1.fetch.rateDist::2                16770671      3.57%     96.38% # Number of instructions fetched each cycle (Total)
system.cpu1.fetch.rateDist::3                13111113      2.79%     99.17% # Number of instructions fetched each cycle (Total)
system.cpu1.fetch.rateDist::4                 2615926      0.56%     99.73% # Number of instructions fetched each cycle (Total)
system.cpu1.fetch.rateDist::5                  760192      0.16%     99.89% # Number of instructions fetched each cycle (Total)
system.cpu1.fetch.rateDist::6                  508505      0.11%    100.00% # Number of instructions fetched each cycle (Total)
system.cpu1.fetch.rateDist::7                       9      0.00%    100.00% # Number of instructions fetched each cycle (Total)
system.cpu1.fetch.rateDist::8                     103      0.00%    100.00% # Number of instructions fetched each cycle (Total)
system.cpu1.fetch.rateDist::overflows               0      0.00%    100.00% # Number of instructions fetched each cycle (Total)
system.cpu1.fetch.rateDist::min_value               0                       # Number of instructions fetched each cycle (Total)
system.cpu1.fetch.rateDist::max_value               8                       # Number of instructions fetched each cycle (Total)
system.cpu1.fetch.rateDist::total           470017454                       # Number of instructions fetched each cycle (Total)
system.cpu1.fp_regfile_reads                       12                       # number of floating regfile reads
system.cpu1.idleCycles                        1722019                       # Total number of cycles that the CPU has spent unscheduled due to idling
system.cpu1.iew.branchMispredicts             2043564                       # Number of branch mispredicts detected at execute
system.cpu1.iew.exec_branches                30444569                       # Number of branches executed
system.cpu1.iew.exec_nop                            0                       # number of nop insts executed
system.cpu1.iew.exec_rate                    0.282113                       # Inst execution rate
system.cpu1.iew.exec_refs                    45440889                       # number of memory reference insts executed
system.cpu1.iew.exec_stores                  11527776                       # Number of stores executed
system.cpu1.iew.exec_swp                            0                       # number of swp insts executed
system.cpu1.iew.iewBlockCycles              314602110                       # Number of cycles IEW is blocking
system.cpu1.iew.iewDispLoadInsts             34300111                       # Number of dispatched load instructions
system.cpu1.iew.iewDispNonSpecInsts           2100652                       # Number of dispatched non-speculative instructions
system.cpu1.iew.iewDispSquashedInsts          2348971                       # Number of squashed instructions skipped by dispatch
system.cpu1.iew.iewDispStoreInsts            11991167                       # Number of dispatched store instructions
system.cpu1.iew.iewDispatchedInsts          137872072                       # Number of instructions dispatched to IQ
system.cpu1.iew.iewExecLoadInsts             33913113                       # Number of load instructions executed
system.cpu1.iew.iewExecSquashedInsts          1878963                       # Number of squashed instructions skipped in execute
system.cpu1.iew.iewExecutedInsts            133083657                       # Number of executed instructions
system.cpu1.iew.iewIQFullEvents               1634537                       # Number of times the IQ has become full, causing a stall
system.cpu1.iew.iewIdleCycles                       0                       # Number of cycles IEW is idle
system.cpu1.iew.iewLSQFullEvents              6209716                       # Number of times the LSQ has become full, causing a stall
system.cpu1.iew.iewSquashCycles               1975125                       # Number of cycles IEW is squashing
system.cpu1.iew.iewUnblockCycles             10703936                       # Number of cycles IEW is unblocking
system.cpu1.iew.lsq.thread0.blockedLoads            0                       # Number of blocked loads due to partial load-store forwarding
system.cpu1.iew.lsq.thread0.cacheBlocked       106999                       # Number of times an access to memory failed due to the cache being blocked
system.cpu1.iew.lsq.thread0.forwLoads          886563                       # Number of loads that had data forwarded from stores
system.cpu1.iew.lsq.thread0.ignoredResponses        45130                       # Number of memory responses ignored because the instruction is squashed
system.cpu1.iew.lsq.thread0.invAddrLoads            0                       # Number of loads ignored due to an invalid address
system.cpu1.iew.lsq.thread0.invAddrSwpfs            0                       # Number of software prefetches ignored due to an invalid address
system.cpu1.iew.lsq.thread0.memOrderViolation         1818                       # Number of memory ordering violations
system.cpu1.iew.lsq.thread0.rescheduledLoads        14661                       # Number of loads that were rescheduled
system.cpu1.iew.lsq.thread0.squashedLoads      4126354                       # Number of loads squashed
system.cpu1.iew.lsq.thread0.squashedStores       871952                       # Number of stores squashed
system.cpu1.iew.memOrderViolationEvents          1818                       # Number of memory order violations
system.cpu1.iew.predictedNotTakenIncorrect       529228                       # Number of branches that were predicted not taken incorrectly
system.cpu1.iew.predictedTakenIncorrect       1514336                       # Number of branches that were predicted taken incorrectly
system.cpu1.iew.wb_consumers                 78123652                       # num instructions consuming a value
system.cpu1.iew.wb_count                    131444945                       # cumulative count of insts written-back
system.cpu1.iew.wb_fanout                    0.835403                       # average fanout of values written-back
system.cpu1.iew.wb_producers                 65264697                       # num instructions producing a value
system.cpu1.iew.wb_rate                      0.278639                       # insts written-back per cycle
system.cpu1.iew.wb_sent                     131505891                       # cumulative count of insts sent to commit
system.cpu1.int_regfile_reads               168803200                       # number of integer regfile reads
system.cpu1.int_regfile_writes               88446603                       # number of integer regfile writes
system.cpu1.ipc                              0.254487                       # IPC: Instructions Per Cycle
system.cpu1.ipc_total                        0.254487                       # IPC: Total IPC of All Threads
system.cpu1.iq.FU_type_0::No_OpClass          4200224      3.11%      3.11% # Type of FU issued
system.cpu1.iq.FU_type_0::IntAlu             84828650     62.85%     65.97% # Type of FU issued
system.cpu1.iq.FU_type_0::IntMult                  48      0.00%     65.97% # Type of FU issued
system.cpu1.iq.FU_type_0::IntDiv                   88      0.00%     65.97% # Type of FU issued
system.cpu1.iq.FU_type_0::FloatAdd                  0      0.00%     65.97% # Type of FU issued
system.cpu1.iq.FU_type_0::FloatCmp                  0      0.00%     65.97% # Type of FU issued
system.cpu1.iq.FU_type_0::FloatCvt                  0      0.00%     65.97% # Type of FU issued
system.cpu1.iq.FU_type_0::FloatMult                 0      0.00%     65.97% # Type of FU issued
system.cpu1.iq.FU_type_0::FloatMultAcc              0      0.00%     65.97% # Type of FU issued
system.cpu1.iq.FU_type_0::FloatDiv                  0      0.00%     65.97% # Type of FU issued
system.cpu1.iq.FU_type_0::FloatMisc                 0      0.00%     65.97% # Type of FU issued
system.cpu1.iq.FU_type_0::FloatSqrt                 0      0.00%     65.97% # Type of FU issued
system.cpu1.iq.FU_type_0::SimdAdd                   0      0.00%     65.97% # Type of FU issued
system.cpu1.iq.FU_type_0::SimdAddAcc                0      0.00%     65.97% # Type of FU issued
system.cpu1.iq.FU_type_0::SimdAlu                   0      0.00%     65.97% # Type of FU issued
system.cpu1.iq.FU_type_0::SimdCmp                   0      0.00%     65.97% # Type of FU issued
system.cpu1.iq.FU_type_0::SimdCvt                   0      0.00%     65.97% # Type of FU issued
system.cpu1.iq.FU_type_0::SimdMisc                  0      0.00%     65.97% # Type of FU issued
system.cpu1.iq.FU_type_0::SimdMult                  0      0.00%     65.97% # Type of FU issued
system.cpu1.iq.FU_type_0::SimdMultAcc               0      0.00%     65.97% # Type of FU issued
system.cpu1.iq.FU_type_0::SimdShift                 0      0.00%     65.97% # Type of FU issued
system.cpu1.iq.FU_type_0::SimdShiftAcc              0      0.00%     65.97% # Type of FU issued
system.cpu1.iq.FU_type_0::SimdDiv                   0      0.00%     65.97% # Type of FU issued
system.cpu1.iq.FU_type_0::SimdSqrt                  0      0.00%     65.97% # Type of FU issued
system.cpu1.iq.FU_type_0::SimdFloatAdd              0      0.00%     65.97% # Type of FU issued
system.cpu1.iq.FU_type_0::SimdFloatAlu              0      0.00%     65.97% # Type of FU issued
system.cpu1.iq.FU_type_0::SimdFloatCmp              0      0.00%     65.97% # Type of FU issued
system.cpu1.iq.FU_type_0::SimdFloatCvt              0      0.00%     65.97% # Type of FU issued
system.cpu1.iq.FU_type_0::SimdFloatDiv              0      0.00%     65.97% # Type of FU issued
system.cpu1.iq.FU_type_0::SimdFloatMisc             0      0.00%     65.97% # Type of FU issued
system.cpu1.iq.FU_type_0::SimdFloatMult             0      0.00%     65.97% # Type of FU issued
system.cpu1.iq.FU_type_0::SimdFloatMultAcc            0      0.00%     65.97% # Type of FU issued
system.cpu1.iq.FU_type_0::SimdFloatSqrt             0      0.00%     65.97% # Type of FU issued
system.cpu1.iq.FU_type_0::SimdReduceAdd             0      0.00%     65.97% # Type of FU issued
system.cpu1.iq.FU_type_0::SimdReduceAlu             0      0.00%     65.97% # Type of FU issued
system.cpu1.iq.FU_type_0::SimdReduceCmp             0      0.00%     65.97% # Type of FU issued
system.cpu1.iq.FU_type_0::SimdFloatReduceAdd            0      0.00%     65.97% # Type of FU issued
system.cpu1.iq.FU_type_0::SimdFloatReduceCmp            0      0.00%     65.97% # Type of FU issued
system.cpu1.iq.FU_type_0::SimdAes                   0      0.00%     65.97% # Type of FU issued
system.cpu1.iq.FU_type_0::SimdAesMix                0      0.00%     65.97% # Type of FU issued
system.cpu1.iq.FU_type_0::SimdSha1Hash              0      0.00%     65.97% # Type of FU issued
system.cpu1.iq.FU_type_0::SimdSha1Hash2             0      0.00%     65.97% # Type of FU issued
system.cpu1.iq.FU_type_0::SimdSha256Hash            0      0.00%     65.97% # Type of FU issued
system.cpu1.iq.FU_type_0::SimdSha256Hash2            0      0.00%     65.97% # Type of FU issued
system.cpu1.iq.FU_type_0::SimdShaSigma2             0      0.00%     65.97% # Type of FU issued
system.cpu1.iq.FU_type_0::SimdShaSigma3             0      0.00%     65.97% # Type of FU issued
system.cpu1.iq.FU_type_0::SimdPredAlu               0      0.00%     65.97% # Type of FU issued
system.cpu1.iq.FU_type_0::MemRead            36408860     26.98%     92.94% # Type of FU issued
system.cpu1.iq.FU_type_0::MemWrite            9524738      7.06%    100.00% # Type of FU issued
system.cpu1.iq.FU_type_0::FloatMemRead              0      0.00%    100.00% # Type of FU issued
system.cpu1.iq.FU_type_0::FloatMemWrite            12      0.00%    100.00% # Type of FU issued
system.cpu1.iq.FU_type_0::IprAccess                 0      0.00%    100.00% # Type of FU issued
system.cpu1.iq.FU_type_0::InstPrefetch              0      0.00%    100.00% # Type of FU issued
system.cpu1.iq.FU_type_0::total             134962620                       # Type of FU issued
system.cpu1.iq.fp_alu_accesses                     15                       # Number of floating point alu accesses
system.cpu1.iq.fp_inst_queue_reads                 27                       # Number of floating instruction queue reads
system.cpu1.iq.fp_inst_queue_wakeup_accesses           12                       # Number of floating instruction queue wakeup accesses
system.cpu1.iq.fp_inst_queue_writes                12                       # Number of floating instruction queue writes
system.cpu1.iq.fu_busy_cnt                    2949629                       # FU busy when requested
system.cpu1.iq.fu_busy_rate                  0.021855                       # FU busy rate (busy events/executed inst)
system.cpu1.iq.fu_full::No_OpClass                  0      0.00%      0.00% # attempts to use FU when none available
system.cpu1.iq.fu_full::IntAlu                 597263     20.25%     20.25% # attempts to use FU when none available
system.cpu1.iq.fu_full::IntMult                     0      0.00%     20.25% # attempts to use FU when none available
system.cpu1.iq.fu_full::IntDiv                      0      0.00%     20.25% # attempts to use FU when none available
system.cpu1.iq.fu_full::FloatAdd                    0      0.00%     20.25% # attempts to use FU when none available
system.cpu1.iq.fu_full::FloatCmp                    0      0.00%     20.25% # attempts to use FU when none available
system.cpu1.iq.fu_full::FloatCvt                    0      0.00%     20.25% # attempts to use FU when none available
system.cpu1.iq.fu_full::FloatMult                   0      0.00%     20.25% # attempts to use FU when none available
system.cpu1.iq.fu_full::FloatMultAcc                0      0.00%     20.25% # attempts to use FU when none available
system.cpu1.iq.fu_full::FloatDiv                    0      0.00%     20.25% # attempts to use FU when none available
system.cpu1.iq.fu_full::FloatMisc                   0      0.00%     20.25% # attempts to use FU when none available
system.cpu1.iq.fu_full::FloatSqrt                   0      0.00%     20.25% # attempts to use FU when none available
system.cpu1.iq.fu_full::SimdAdd                     0      0.00%     20.25% # attempts to use FU when none available
system.cpu1.iq.fu_full::SimdAddAcc                  0      0.00%     20.25% # attempts to use FU when none available
system.cpu1.iq.fu_full::SimdAlu                     0      0.00%     20.25% # attempts to use FU when none available
system.cpu1.iq.fu_full::SimdCmp                     0      0.00%     20.25% # attempts to use FU when none available
system.cpu1.iq.fu_full::SimdCvt                     0      0.00%     20.25% # attempts to use FU when none available
system.cpu1.iq.fu_full::SimdMisc                    0      0.00%     20.25% # attempts to use FU when none available
system.cpu1.iq.fu_full::SimdMult                    0      0.00%     20.25% # attempts to use FU when none available
system.cpu1.iq.fu_full::SimdMultAcc                 0      0.00%     20.25% # attempts to use FU when none available
system.cpu1.iq.fu_full::SimdShift                   0      0.00%     20.25% # attempts to use FU when none available
system.cpu1.iq.fu_full::SimdShiftAcc                0      0.00%     20.25% # attempts to use FU when none available
system.cpu1.iq.fu_full::SimdDiv                     0      0.00%     20.25% # attempts to use FU when none available
system.cpu1.iq.fu_full::SimdSqrt                    0      0.00%     20.25% # attempts to use FU when none available
system.cpu1.iq.fu_full::SimdFloatAdd                0      0.00%     20.25% # attempts to use FU when none available
system.cpu1.iq.fu_full::SimdFloatAlu                0      0.00%     20.25% # attempts to use FU when none available
system.cpu1.iq.fu_full::SimdFloatCmp                0      0.00%     20.25% # attempts to use FU when none available
system.cpu1.iq.fu_full::SimdFloatCvt                0      0.00%     20.25% # attempts to use FU when none available
system.cpu1.iq.fu_full::SimdFloatDiv                0      0.00%     20.25% # attempts to use FU when none available
system.cpu1.iq.fu_full::SimdFloatMisc               0      0.00%     20.25% # attempts to use FU when none available
system.cpu1.iq.fu_full::SimdFloatMult               0      0.00%     20.25% # attempts to use FU when none available
system.cpu1.iq.fu_full::SimdFloatMultAcc            0      0.00%     20.25% # attempts to use FU when none available
system.cpu1.iq.fu_full::SimdFloatSqrt               0      0.00%     20.25% # attempts to use FU when none available
system.cpu1.iq.fu_full::SimdReduceAdd               0      0.00%     20.25% # attempts to use FU when none available
system.cpu1.iq.fu_full::SimdReduceAlu               0      0.00%     20.25% # attempts to use FU when none available
system.cpu1.iq.fu_full::SimdReduceCmp               0      0.00%     20.25% # attempts to use FU when none available
system.cpu1.iq.fu_full::SimdFloatReduceAdd            0      0.00%     20.25% # attempts to use FU when none available
system.cpu1.iq.fu_full::SimdFloatReduceCmp            0      0.00%     20.25% # attempts to use FU when none available
system.cpu1.iq.fu_full::SimdAes                     0      0.00%     20.25% # attempts to use FU when none available
system.cpu1.iq.fu_full::SimdAesMix                  0      0.00%     20.25% # attempts to use FU when none available
system.cpu1.iq.fu_full::SimdSha1Hash                0      0.00%     20.25% # attempts to use FU when none available
system.cpu1.iq.fu_full::SimdSha1Hash2               0      0.00%     20.25% # attempts to use FU when none available
system.cpu1.iq.fu_full::SimdSha256Hash              0      0.00%     20.25% # attempts to use FU when none available
system.cpu1.iq.fu_full::SimdSha256Hash2             0      0.00%     20.25% # attempts to use FU when none available
system.cpu1.iq.fu_full::SimdShaSigma2               0      0.00%     20.25% # attempts to use FU when none available
system.cpu1.iq.fu_full::SimdShaSigma3               0      0.00%     20.25% # attempts to use FU when none available
system.cpu1.iq.fu_full::SimdPredAlu                 0      0.00%     20.25% # attempts to use FU when none available
system.cpu1.iq.fu_full::MemRead               1856265     62.93%     83.18% # attempts to use FU when none available
system.cpu1.iq.fu_full::MemWrite               496098     16.82%    100.00% # attempts to use FU when none available
[...]
system.mem_ctrls.bytesReadSys                   28480                       # Total read bytes from the system interface side
system.mem_ctrls.bytesWrittenSys                 5568                       # Total written bytes from the system interface side
system.mem_ctrls.avgRdBW                      1186.62                       # Average DRAM read bandwidth in MiByte/s
system.mem_ctrls.avgWrBW                       221.28                       # Average achieved write bandwidth in MiByte/s
system.mem_ctrls.avgRdBWSys                   1230.88                       # Average system read bandwidth in MiByte/s
system.mem_ctrls.avgWrBWSys                    240.64                       # Average system write bandwidth in MiByte/s
system.mem_ctrls.peakBW                      12800.00                       # Theoretical peak bandwidth in MiByte/s
system.mem_ctrls.busUtil                        11.00                       # Data bus utilization in percentage
system.mem_ctrls.busUtilRead                     9.27                       # Data bus utilization in percentage for reads
system.mem_ctrls.busUtilWrite                    1.73                       # Data bus utilization in percentage for writes
system.mem_ctrls.totGap                      23131500                       # Total gap between requests
system.mem_ctrls.avgGap                      43480.26                       # Average gap between requests
system.mem_ctrls.masterReadBytes::.cpu0.inst        16768                       # Per-master bytes read from memory
system.mem_ctrls.masterReadBytes::.cpu0.data         9984                       # Per-master bytes read from memory
system.mem_ctrls.masterReadBytes::.l2.prefetcher          704                       # Per-master bytes read from memory
system.mem_ctrls.masterWriteBytes::.writebacks         5120                       # Per-master bytes write to memory
system.mem_ctrls.masterReadRate::.cpu0.inst 724695306.422335505486                       # Per-master bytes read from memory rate (Bytes/sec)
system.mem_ctrls.masterReadRate::.cpu0.data 431497968.709482192993                       # Per-master bytes read from memory rate (Bytes/sec)
system.mem_ctrls.masterReadRate::.l2.prefetcher 30426138.819258362055                       # Per-master bytes read from memory rate (Bytes/sec)
system.mem_ctrls.masterWriteRate::.writebacks 221281009.594606250525                       # Per-master bytes write to memory rate (Bytes/sec)
system.mem_ctrls.masterReadAccesses::.cpu0.inst          262                       # Per-master read serviced memory accesses
system.mem_ctrls.masterReadAccesses::.cpu0.data          172                       # Per-master read serviced memory accesses
system.mem_ctrls.masterReadAccesses::.l2.prefetcher           11                       # Per-master read serviced memory accesses
system.mem_ctrls.masterWriteAccesses::.writebacks           87                       # Per-master write serviced memory accesses
system.mem_ctrls.masterReadTotalLat::.cpu0.inst      8979000                       # Per-master read total memory access latency
system.mem_ctrls.masterReadTotalLat::.cpu0.data      5842753                       # Per-master read total memory access latency
system.mem_ctrls.masterReadTotalLat::.l2.prefetcher       246256                       # Per-master read total memory access latency
system.mem_ctrls.masterWriteTotalLat::.writebacks    582470500                       # Per-master write total memory access latency
system.mem_ctrls.masterReadAvgLat::.cpu0.inst     34270.99                       # Per-master read average memory access latency
system.mem_ctrls.masterReadAvgLat::.cpu0.data     33969.49                       # Per-master read average memory access latency
system.mem_ctrls.masterReadAvgLat::.l2.prefetcher     22386.91                       # Per-master read average memory access latency
system.mem_ctrls.masterWriteAvgLat::.writebacks   6695063.22                       # Per-master write average memory access latency
system.mem_ctrls.pageHitRate                    69.79                       # Row buffer hit rate, read and write combined
system.mem_ctrls.rank1.actEnergy               414120                       # Energy for activate commands per rank (pJ)
system.mem_ctrls.rank1.preEnergy               227700                       # Energy for precharge commands per rank (pJ)
system.mem_ctrls.rank1.readEnergy             1313760                       # Energy for read commands per rank (pJ)
system.mem_ctrls.rank1.writeEnergy             109620                       # Energy for write commands per rank (pJ)
system.mem_ctrls.rank1.refreshEnergy     1843920.000000                       # Energy for refresh commands per rank (pJ)
system.mem_ctrls.rank1.actBackEnergy          9902610                       # Energy for active background per rank (pJ)
system.mem_ctrls.rank1.preBackEnergy           545760                       # Energy for precharge background per rank (pJ)
system.mem_ctrls.rank1.actPowerDownEnergy            0                       # Energy for active power-down per rank (pJ)
system.mem_ctrls.rank1.prePowerDownEnergy            0                       # Energy for precharge power-down per rank (pJ)
system.mem_ctrls.rank1.selfRefreshEnergy            0                       # Energy for self refresh per rank (pJ)
system.mem_ctrls.rank1.totalEnergy           14357490                       # Total energy per rank (pJ)
system.mem_ctrls.rank1.averagePower        620.515602                       # Core power per rank (mW)
system.mem_ctrls.rank1.totalIdleTime                0                       # Total Idle time Per DRAM Rank
system.mem_ctrls.rank1.memoryStateTime::IDLE      1296750                       # Time in different power states
system.mem_ctrls.rank1.memoryStateTime::REF       780000                       # Time in different power states
system.mem_ctrls.rank1.memoryStateTime::SREF            0                       # Time in different power states
system.mem_ctrls.rank1.memoryStateTime::PRE_PDN            0                       # Time in different power states
system.mem_ctrls.rank1.memoryStateTime::ACT     21061250                       # Time in different power states
system.mem_ctrls.rank1.memoryStateTime::ACT_PDN            0                       # Time in different power states
system.mem_ctrls.rank0.actEnergy               656880                       # Energy for activate commands per rank (pJ)
system.mem_ctrls.rank0.preEnergy               349140                       # Energy for precharge commands per rank (pJ)
system.mem_ctrls.rank0.readEnergy             1742160                       # Energy for read commands per rank (pJ)
system.mem_ctrls.rank0.writeEnergy             307980                       # Energy for write commands per rank (pJ)
system.mem_ctrls.rank0.refreshEnergy     1843920.000000                       # Energy for refresh commands per rank (pJ)
system.mem_ctrls.rank0.actBackEnergy         10230930                       # Energy for active background per rank (pJ)
system.mem_ctrls.rank0.preBackEnergy           269280                       # Energy for precharge background per rank (pJ)
system.mem_ctrls.rank0.actPowerDownEnergy            0                       # Energy for active power-down per rank (pJ)
system.mem_ctrls.rank0.prePowerDownEnergy            0                       # Energy for precharge power-down per rank (pJ)
system.mem_ctrls.rank0.selfRefreshEnergy            0                       # Energy for self refresh per rank (pJ)
system.mem_ctrls.rank0.totalEnergy           15400290                       # Total energy per rank (pJ)
system.mem_ctrls.rank0.averagePower        665.584320                       # Core power per rank (mW)
system.mem_ctrls.rank0.totalIdleTime                0                       # Total Idle time Per DRAM Rank
system.mem_ctrls.rank0.memoryStateTime::IDLE       604250                       # Time in different power states
system.mem_ctrls.rank0.memoryStateTime::REF       780000                       # Time in different power states
system.mem_ctrls.rank0.memoryStateTime::SREF            0                       # Time in different power states
system.mem_ctrls.rank0.memoryStateTime::PRE_PDN            0                       # Time in different power states
system.mem_ctrls.rank0.memoryStateTime::ACT     21753750                       # Time in different power states
system.mem_ctrls.rank0.memoryStateTime::ACT_PDN            0                       # Time in different power states
system.cpu1.pwrStateClkGateDist::samples            1                       # Distribution of time spent in the clock gated state
system.cpu1.pwrStateClkGateDist::mean        23138000                       # Distribution of time spent in the clock gated state
system.cpu1.pwrStateClkGateDist::1000-5e+10            1    100.00%    100.00% # Distribution of time spent in the clock gated state
system.cpu1.pwrStateClkGateDist::min_value     23138000                       # Distribution of time spent in the clock gated state
system.cpu1.pwrStateClkGateDist::max_value     23138000                       # Distribution of time spent in the clock gated state
system.cpu1.pwrStateClkGateDist::total              1                       # Distribution of time spent in the clock gated state
system.cpu1.pwrStateResidencyTicks::CLK_GATED     23138000                       # Cumulative time (in ticks) in various power states
system.cpu1.icache.pwrStateResidencyTicks::UNDEFINED     23138000                       # Cumulative time (in ticks) in various power states
system.cpu1.icache.blocked_cycles::no_mshrs            0                       # number of cycles access was blocked
system.cpu1.icache.blocked_cycles::no_targets            0                       # number of cycles access was blocked
system.cpu1.icache.blocked::no_mshrs                0                       # number of cycles access was blocked
system.cpu1.icache.blocked::no_targets              0                       # number of cycles access was blocked
system.cpu1.icache.avg_blocked_cycles::no_mshrs          nan                       # average number of cycles each access was blocked
system.cpu1.icache.avg_blocked_cycles::no_targets          nan                       # average number of cycles each access was blocked
system.cpu1.icache.replacements                     0                       # number of replacements
system.cpu1.icache.tags.pwrStateResidencyTicks::UNDEFINED     23138000                       # Cumulative time (in ticks) in various power states
system.cpu1.icache.tags.tagsinuse                  32                       # Cycle average of tags in use
system.cpu1.icache.tags.total_refs             700125                       # Total number of references to valid blocks.
system.cpu1.icache.tags.sampled_refs               32                       # Sample count of references to valid blocks.
system.cpu1.icache.tags.avg_refs         21878.906250                       # Average number of references to valid blocks.
system.cpu1.icache.tags.warmup_cycle                0                       # Cycle when the warmup percentage was hit.
system.cpu1.icache.tags.occ_blocks::.cpu1.inst           32                       # Average occupied blocks per requestor
system.cpu1.icache.tags.occ_percent::.cpu1.inst            1                       # Average percentage of cache occupancy
system.cpu1.icache.tags.occ_percent::total            1                       # Average percentage of cache occupancy
system.cpu1.icache.tags.occ_task_id_blocks::1024           32                       # Occupied blocks per task id
system.cpu1.icache.tags.age_task_id_blocks_1024::1           21                       # Occupied blocks per task id
system.cpu1.icache.tags.age_task_id_blocks_1024::3            1                       # Occupied blocks per task id
system.cpu1.icache.tags.age_task_id_blocks_1024::4           10                       # Occupied blocks per task id
system.cpu1.icache.tags.occ_task_id_percent::1024            1                       # Percentage of cache occupancy per task id
system.cpu1.icache.tags.tag_accesses                0                       # Number of tag accesses
system.cpu1.icache.tags.data_accesses               0                       # Number of data accesses
system.cpu1.dcache.pwrStateResidencyTicks::UNDEFINED     23138000                       # Cumulative time (in ticks) in various power states
system.cpu1.dcache.blocked_cycles::no_mshrs            0                       # number of cycles access was blocked
system.cpu1.dcache.blocked_cycles::no_targets            0                       # number of cycles access was blocked
system.cpu1.dcache.blocked::no_mshrs                0                       # number of cycles access was blocked
system.cpu1.dcache.blocked::no_targets              0                       # number of cycles access was blocked
system.cpu1.dcache.avg_blocked_cycles::no_mshrs          nan                       # average number of cycles each access was blocked
system.cpu1.dcache.avg_blocked_cycles::no_targets          nan                       # average number of cycles each access was blocked
system.cpu1.dcache.replacements                     0                       # number of replacements
system.cpu1.dcache.tags.pwrStateResidencyTicks::UNDEFINED     23138000                       # Cumulative time (in ticks) in various power states
system.cpu1.dcache.tags.tagsinuse           27.600895                       # Cycle average of tags in use
system.cpu1.dcache.tags.total_refs               2427                       # Total number of references to valid blocks.
system.cpu1.dcache.tags.sampled_refs               31                       # Sample count of references to valid blocks.
system.cpu1.dcache.tags.avg_refs            78.290323                       # Average number of references to valid blocks.
system.cpu1.dcache.tags.warmup_cycle                0                       # Cycle when the warmup percentage was hit.
system.cpu1.dcache.tags.occ_blocks::.cpu1.data    27.600895                       # Average occupied blocks per requestor
system.cpu1.dcache.tags.occ_percent::.cpu1.data     0.862528                       # Average percentage of cache occupancy
system.cpu1.dcache.tags.occ_percent::total     0.862528                       # Average percentage of cache occupancy
system.cpu1.dcache.tags.occ_task_id_blocks::1024           27                       # Occupied blocks per task id
system.cpu1.dcache.tags.age_task_id_blocks_1024::1           27                       # Occupied blocks per task id
system.cpu1.dcache.tags.occ_task_id_percent::1024     0.843750                       # Percentage of cache occupancy per task id
system.cpu1.dcache.tags.tag_accesses                0                       # Number of tag accesses
system.cpu1.dcache.tags.data_accesses               0                       # Number of data accesses
system.cpu_clk_domain.clock                       500                       # Clock period in ticks
system.tol2bus.pwrStateResidencyTicks::UNDEFINED     23138000                       # Cumulative time (in ticks) in various power states
system.tol2bus.trans_dist::ReadResp               571                       # Transaction distribution
system.tol2bus.trans_dist::WritebackDirty          202                       # Transaction distribution
system.tol2bus.trans_dist::WritebackClean          483                       # Transaction distribution
system.tol2bus.trans_dist::CleanEvict             704                       # Transaction distribution
system.tol2bus.trans_dist::HardPFReq               18                       # Transaction distribution
system.tol2bus.trans_dist::UpgradeReq               3                       # Transaction distribution
system.tol2bus.trans_dist::UpgradeResp              3                       # Transaction distribution
system.tol2bus.trans_dist::ReadExReq               28                       # Transaction distribution
system.tol2bus.trans_dist::ReadExResp              28                       # Transaction distribution
system.tol2bus.trans_dist::ReadCleanReq           340                       # Transaction distribution
system.tol2bus.trans_dist::ReadSharedReq          233                       # Transaction distribution
system.tol2bus.pkt_count_system.cpu0.icache.mem_side::system.l2.cpu_side         1016                       # Packet count per connected master and slave (bytes)
system.tol2bus.pkt_count_system.cpu0.dcache.mem_side::system.l2.cpu_side          786                       # Packet count per connected master and slave (bytes)
system.tol2bus.pkt_count::total                  1802                       # Packet count per connected master and slave (bytes)
system.tol2bus.pkt_size_system.cpu0.icache.mem_side::system.l2.cpu_side        43264                       # Cumulative packet size per connected master and slave (bytes)
system.tol2bus.pkt_size_system.cpu0.dcache.mem_side::system.l2.cpu_side        33280                       # Cumulative packet size per connected master and slave (bytes)
system.tol2bus.pkt_size::total                  76544                       # Cumulative packet size per connected master and slave (bytes)
system.tol2bus.snoops                             811                       # Total snoops (count)
system.tol2bus.snoopTraffic                      5632                       # Total snoop traffic (bytes)
system.tol2bus.snoop_fanout::samples             1413                       # Request fanout histogram
system.tol2bus.snoop_fanout::mean            0.295117                       # Request fanout histogram
system.tol2bus.snoop_fanout::stdev           0.481923                       # Request fanout histogram
system.tol2bus.snoop_fanout::underflows             0      0.00%      0.00% # Request fanout histogram
system.tol2bus.snoop_fanout::0                   1013     71.69%     71.69% # Request fanout histogram
system.tol2bus.snoop_fanout::1                    383     27.11%     98.80% # Request fanout histogram
system.tol2bus.snoop_fanout::2                     17      1.20%    100.00% # Request fanout histogram
system.tol2bus.snoop_fanout::3                      0      0.00%    100.00% # Request fanout histogram
system.tol2bus.snoop_fanout::4                      0      0.00%    100.00% # Request fanout histogram
system.tol2bus.snoop_fanout::5                      0      0.00%    100.00% # Request fanout histogram
system.tol2bus.snoop_fanout::6                      0      0.00%    100.00% # Request fanout histogram
system.tol2bus.snoop_fanout::7                      0      0.00%    100.00% # Request fanout histogram
system.tol2bus.snoop_fanout::8                      0      0.00%    100.00% # Request fanout histogram
system.tol2bus.snoop_fanout::overflows              0      0.00%    100.00% # Request fanout histogram
system.tol2bus.snoop_fanout::min_value              0                       # Request fanout histogram
system.tol2bus.snoop_fanout::max_value              2                       # Request fanout histogram
system.tol2bus.snoop_fanout::total               1413                       # Request fanout histogram
system.tol2bus.reqLayer0.occupancy            1199000                       # Layer occupancy (ticks)
system.tol2bus.reqLayer0.utilization              5.2                       # Layer utilization (%)
system.tol2bus.respLayer1.occupancy            393000                       # Layer occupancy (ticks)
system.tol2bus.respLayer1.utilization             1.7                       # Layer utilization (%)
system.tol2bus.respLayer0.occupancy            507000                       # Layer occupancy (ticks)
system.tol2bus.respLayer0.utilization             2.2                       # Layer utilization (%)

---------- End Simulation Statistics   ----------
