
---------- Begin Simulation Statistics ----------
final_tick                               867374198000                       # Number of ticks from beginning of simulation (restored from checkpoints and never reset)
host_inst_rate                                  86859                       # Simulator instruction rate (inst/s)
host_mem_usage                                 739332                       # Number of bytes of host memory used
host_op_rate                                    87139                       # Simulator op (including micro ops) rate (op/s)
host_seconds                                 11726.02                       # Real time elapsed on the host
host_tick_rate                               73970013                       # Simulator tick rate (ticks/s)
sim_freq                                 1000000000000                       # Frequency of simulated ticks
sim_insts                                  1018512929                       # Number of instructions simulated
sim_ops                                    1021794533                       # Number of ops (including micro ops) simulated
sim_seconds                                  0.867374                       # Number of seconds simulated
sim_ticks                                867374198000                       # Number of ticks simulated
system.cpu0.branchPred.BTBCorrect                   0                       # Number of correct BTB predictions (this stat may not work properly.
system.cpu0.branchPred.BTBHitPct            86.829100                       # BTB Hit Percentage
system.cpu0.branchPred.BTBHits              119269259                       # Number of BTB hits
system.cpu0.branchPred.BTBLookups           137360930                       # Number of BTB lookups
system.cpu0.branchPred.RASInCorrect                 0                       # Number of incorrect RAS predictions.
system.cpu0.branchPred.condIncorrect         13316129                       # Number of conditional branches incorrect
system.cpu0.branchPred.condPredicted        189020998                       # Number of conditional branches predicted
system.cpu0.branchPred.indirectHits          16231252                       # Number of indirect target hits.
system.cpu0.branchPred.indirectLookups       16343504                       # Number of indirect predictor lookups.
system.cpu0.branchPred.indirectMisses          112252                       # Number of indirect misses.
system.cpu0.branchPred.lookups              239716656                       # Number of BP lookups
system.cpu0.branchPred.usedRAS                      0                       # Number of times the RAS was used to get a target.
system.cpu0.branchPredindirectMispredicted      1662729                       # Number of mispredicted indirect branches.
system.cpu0.commit.amos                        819900                       # Number of atomic instructions committed
system.cpu0.commit.branchMispredicts          8200232                       # The number of times a branch was mispredicted
system.cpu0.commit.branches                 221017280                       # Number of branches committed
system.cpu0.commit.bw_lim_events             28029325                       # number cycles where commit BW limit reached
system.cpu0.commit.commitNonSpecStalls        2466269                       # The number of times commit has been forced to stall to communicate backwards
system.cpu0.commit.commitSquashedInsts       63566223                       # The number of squashed insts skipped by commit
system.cpu0.commit.committedInsts           892416527                       # Number of instructions committed
system.cpu0.commit.committedOps             893238646                       # Number of ops (including micro ops) committed
system.cpu0.commit.committed_per_cycle::samples   1547945998                       # Number of insts commited each cycle
system.cpu0.commit.committed_per_cycle::mean     0.577048                       # Number of insts commited each cycle
system.cpu0.commit.committed_per_cycle::stdev     1.377534                       # Number of insts commited each cycle
system.cpu0.commit.committed_per_cycle::underflows            0      0.00%      0.00% # Number of insts commited each cycle
system.cpu0.commit.committed_per_cycle::0   1124302640     72.63%     72.63% # Number of insts commited each cycle
system.cpu0.commit.committed_per_cycle::1    254828047     16.46%     89.09% # Number of insts commited each cycle
system.cpu0.commit.committed_per_cycle::2     58112577      3.75%     92.85% # Number of insts commited each cycle
system.cpu0.commit.committed_per_cycle::3     55794776      3.60%     96.45% # Number of insts commited each cycle
system.cpu0.commit.committed_per_cycle::4     15404443      1.00%     97.45% # Number of insts commited each cycle
system.cpu0.commit.committed_per_cycle::5      4313503      0.28%     97.73% # Number of insts commited each cycle
system.cpu0.commit.committed_per_cycle::6      2743579      0.18%     97.90% # Number of insts commited each cycle
system.cpu0.commit.committed_per_cycle::7      4417108      0.29%     98.19% # Number of insts commited each cycle
system.cpu0.commit.committed_per_cycle::8     28029325      1.81%    100.00% # Number of insts commited each cycle
system.cpu0.commit.committed_per_cycle::overflows            0      0.00%    100.00% # Number of insts commited each cycle
system.cpu0.commit.committed_per_cycle::min_value            0                       # Number of insts commited each cycle
system.cpu0.commit.committed_per_cycle::max_value            8                       # Number of insts commited each cycle
system.cpu0.commit.committed_per_cycle::total   1547945998                       # Number of insts commited each cycle
system.cpu0.commit.fp_insts                        65                       # Number of committed floating point instructions.
system.cpu0.commit.function_calls            18341653                       # Number of function calls committed.
system.cpu0.commit.int_insts                863526485                       # Number of committed integer instructions.
system.cpu0.commit.loads                    280414728                       # Number of loads committed
system.cpu0.commit.membars                    1641872                       # Number of memory barriers committed
system.cpu0.commit.op_class_0::No_OpClass      1641881      0.18%      0.18% # Class of committed instruction
system.cpu0.commit.op_class_0::IntAlu       491125249     54.98%     55.17% # Class of committed instruction
system.cpu0.commit.op_class_0::IntMult        7835040      0.88%     56.04% # Class of committed instruction
system.cpu0.commit.op_class_0::IntDiv         1638717      0.18%     56.23% # Class of committed instruction
system.cpu0.commit.op_class_0::FloatAdd             0      0.00%     56.23% # Class of committed instruction
system.cpu0.commit.op_class_0::FloatCmp             6      0.00%     56.23% # Class of committed instruction
system.cpu0.commit.op_class_0::FloatCvt            16      0.00%     56.23% # Class of committed instruction
system.cpu0.commit.op_class_0::FloatMult            0      0.00%     56.23% # Class of committed instruction
system.cpu0.commit.op_class_0::FloatMultAcc            0      0.00%     56.23% # Class of committed instruction
system.cpu0.commit.op_class_0::FloatDiv             2      0.00%     56.23% # Class of committed instruction
system.cpu0.commit.op_class_0::FloatMisc            6      0.00%     56.23% # Class of committed instruction
system.cpu0.commit.op_class_0::FloatSqrt            0      0.00%     56.23% # Class of committed instruction
system.cpu0.commit.op_class_0::SimdAdd              0      0.00%     56.23% # Class of committed instruction
system.cpu0.commit.op_class_0::SimdAddAcc            0      0.00%     56.23% # Class of committed instruction
system.cpu0.commit.op_class_0::SimdAlu              0      0.00%     56.23% # Class of committed instruction
system.cpu0.commit.op_class_0::SimdCmp              0      0.00%     56.23% # Class of committed instruction
system.cpu0.commit.op_class_0::SimdCvt              0      0.00%     56.23% # Class of committed instruction
system.cpu0.commit.op_class_0::SimdMisc             0      0.00%     56.23% # Class of committed instruction
system.cpu0.commit.op_class_0::SimdMult             0      0.00%     56.23% # Class of committed instruction
system.cpu0.commit.op_class_0::SimdMultAcc            0      0.00%     56.23% # Class of committed instruction
system.cpu0.commit.op_class_0::SimdShift            0      0.00%     56.23% # Class of committed instruction
system.cpu0.commit.op_class_0::SimdShiftAcc            0      0.00%     56.23% # Class of committed instruction
system.cpu0.commit.op_class_0::SimdDiv              0      0.00%     56.23% # Class of committed instruction
system.cpu0.commit.op_class_0::SimdSqrt             0      0.00%     56.23% # Class of committed instruction
system.cpu0.commit.op_class_0::SimdFloatAdd            0      0.00%     56.23% # Class of committed instruction
system.cpu0.commit.op_class_0::SimdFloatAlu            0      0.00%     56.23% # Class of committed instruction
system.cpu0.commit.op_class_0::SimdFloatCmp            0      0.00%     56.23% # Class of committed instruction
system.cpu0.commit.op_class_0::SimdFloatCvt            0      0.00%     56.23% # Class of committed instruction
system.cpu0.commit.op_class_0::SimdFloatDiv            0      0.00%     56.23% # Class of committed instruction
system.cpu0.commit.op_class_0::SimdFloatMisc            0      0.00%     56.23% # Class of committed instruction
system.cpu0.commit.op_class_0::SimdFloatMult            0      0.00%     56.23% # Class of committed instruction
system.cpu0.commit.op_class_0::SimdFloatMultAcc            0      0.00%     56.23% # Class of committed instruction
system.cpu0.commit.op_class_0::SimdFloatSqrt            0      0.00%     56.23% # Class of committed instruction
system.cpu0.commit.op_class_0::SimdReduceAdd            0      0.00%     56.23% # Class of committed instruction
system.cpu0.commit.op_class_0::SimdReduceAlu            0      0.00%     56.23% # Class of committed instruction
system.cpu0.commit.op_class_0::SimdReduceCmp            0      0.00%     56.23% # Class of committed instruction
system.cpu0.commit.op_class_0::SimdFloatReduceAdd            0      0.00%     56.23% # Class of committed instruction
system.cpu0.commit.op_class_0::SimdFloatReduceCmp            0      0.00%     56.23% # Class of committed instruction
system.cpu0.commit.op_class_0::SimdAes              0      0.00%     56.23% # Class of committed instruction
system.cpu0.commit.op_class_0::SimdAesMix            0      0.00%     56.23% # Class of committed instruction
system.cpu0.commit.op_class_0::SimdSha1Hash            0      0.00%     56.23% # Class of committed instruction
system.cpu0.commit.op_class_0::SimdSha1Hash2            0      0.00%     56.23% # Class of committed instruction
system.cpu0.commit.op_class_0::SimdSha256Hash            0      0.00%     56.23% # Class of committed instruction
system.cpu0.commit.op_class_0::SimdSha256Hash2            0      0.00%     56.23% # Class of committed instruction
system.cpu0.commit.op_class_0::SimdShaSigma2            0      0.00%     56.23% # Class of committed instruction
system.cpu0.commit.op_class_0::SimdShaSigma3            0      0.00%     56.23% # Class of committed instruction
system.cpu0.commit.op_class_0::SimdPredAlu            0      0.00%     56.23% # Class of committed instruction
system.cpu0.commit.op_class_0::MemRead      281234616     31.48%     87.71% # Class of committed instruction
system.cpu0.commit.op_class_0::MemWrite     109763078     12.29%    100.00% # Class of committed instruction
system.cpu0.commit.op_class_0::FloatMemRead           12      0.00%    100.00% # Class of committed instruction
system.cpu0.commit.op_class_0::FloatMemWrite           23      0.00%    100.00% # Class of committed instruction
system.cpu0.commit.op_class_0::IprAccess            0      0.00%    100.00% # Class of committed instruction
system.cpu0.commit.op_class_0::InstPrefetch            0      0.00%    100.00% # Class of committed instruction
system.cpu0.commit.op_class_0::total        893238646                       # Class of committed instruction
system.cpu0.commit.refs                     390997729                       # Number of memory references committed
system.cpu0.commit.swp_count                        0                       # Number of s/w prefetches committed
system.cpu0.commit.vec_insts                        0                       # Number of committed Vector instructions.
system.cpu0.committedInsts                  892416527                       # Number of Instructions Simulated
system.cpu0.committedOps                    893238646                       # Number of Ops (including micro ops) Simulated
system.cpu0.cpi                              1.914827                       # CPI: Cycles Per Instruction
system.cpu0.cpi_total                        1.914827                       # CPI: Total CPI of All Threads
system.cpu0.decode.BlockedCycles            191564420                       # Number of cycles decode is blocked
system.cpu0.decode.BranchMispred              5120641                       # Number of times decode detected a branch misprediction
system.cpu0.decode.BranchResolved           117961277                       # Number of times decode resolved a branch
system.cpu0.decode.DecodedInsts             981001140                       # Number of instructions handled by decode
system.cpu0.decode.IdleCycles               656429404                       # Number of cycles decode is idle
system.cpu0.decode.RunCycles                703101706                       # Number of cycles decode is running
system.cpu0.decode.SquashCycles               8209795                       # Number of cycles decode is squashing
system.cpu0.decode.SquashedInsts             11290615                       # Number of squashed instructions handled by decode
system.cpu0.decode.UnblockCycles              3477479                       # Number of cycles decode is unblocking
system.cpu0.dtb.accesses                            0                       # DTB accesses
system.cpu0.dtb.hits                                0                       # DTB hits
system.cpu0.dtb.misses                              0                       # DTB misses
system.cpu0.dtb.read_accesses                       0                       # DTB read accesses
system.cpu0.dtb.read_hits                           0                       # DTB read hits
system.cpu0.dtb.read_misses                         0                       # DTB read misses
system.cpu0.dtb.write_accesses                      0                       # DTB write accesses
system.cpu0.dtb.write_hits                          0                       # DTB write hits
system.cpu0.dtb.write_misses                        0                       # DTB write misses
system.cpu0.fetch.Branches                  239716656                       # Number of branches that fetch encountered
system.cpu0.fetch.CacheLines                175966255                       # Number of cache lines fetched
system.cpu0.fetch.Cycles                    903337023                       # Number of cycles fetch has run and was not squashing or blocked
system.cpu0.fetch.IcacheSquashes              2532802                       # Number of outstanding Icache misses that were squashed
system.cpu0.fetch.IcacheWaitRetryStallCycles          137                       # Number of stall cycles due to full MSHR
system.cpu0.fetch.Insts                    1006873071                       # Number of instructions fetch has processed
system.cpu0.fetch.MiscStallCycles                  37                       # Number of cycles fetch has spent waiting on interrupts, or bad addresses, or out of MSHRs
system.cpu0.fetch.PendingTrapStallCycles          110                       # Number of stall cycles due to pending traps
system.cpu0.fetch.SquashCycles               26651418                       # Number of cycles fetch has spent squashing
system.cpu0.fetch.branchRate                 0.140282                       # Number of branch fetches per cycle
system.cpu0.fetch.icacheStallCycles         646119788                       # Number of cycles fetch is stalled on an Icache miss
system.cpu0.fetch.predictedBranches         135500511                       # Number of branches that fetch has predicted taken
system.cpu0.fetch.rate                       0.589220                       # Number of inst fetches per cycle
system.cpu0.fetch.rateDist::samples        1562782804                       # Number of instructions fetched each cycle (Total)
system.cpu0.fetch.rateDist::mean             0.646425                       # Number of instructions fetched each cycle (Total)
system.cpu0.fetch.rateDist::stdev            0.884191                       # Number of instructions fetched each cycle (Total)
system.cpu0.fetch.rateDist::underflows              0      0.00%      0.00% # Number of instructions fetched each cycle (Total)
system.cpu0.fetch.rateDist::0               832949210     53.30%     53.30% # Number of instructions fetched each cycle (Total)
system.cpu0.fetch.rateDist::1               549618557     35.17%     88.47% # Number of instructions fetched each cycle (Total)
system.cpu0.fetch.rateDist::2               111231354      7.12%     95.59% # Number of instructions fetched each cycle (Total)
system.cpu0.fetch.rateDist::3                51980008      3.33%     98.91% # Number of instructions fetched each cycle (Total)
system.cpu0.fetch.rateDist::4                 7440957      0.48%     99.39% # Number of instructions fetched each cycle (Total)
system.cpu0.fetch.rateDist::5                 6639282      0.42%     99.81% # Number of instructions fetched each cycle (Total)
system.cpu0.fetch.rateDist::6                 1251639      0.08%     99.89% # Number of instructions fetched each cycle (Total)
system.cpu0.fetch.rateDist::7                 1643192      0.11%    100.00% # Number of instructions fetched each cycle (Total)
system.cpu0.fetch.rateDist::8                   28605      0.00%    100.00% # Number of instructions fetched each cycle (Total)
system.cpu0.fetch.rateDist::overflows               0      0.00%    100.00% # Number of instructions fetched each cycle (Total)
system.cpu0.fetch.rateDist::min_value               0                       # Number of instructions fetched each cycle (Total)
system.cpu0.fetch.rateDist::max_value               8                       # Number of instructions fetched each cycle (Total)
system.cpu0.fetch.rateDist::total          1562782804                       # Number of instructions fetched each cycle (Total)
system.cpu0.fp_regfile_reads                       56                       # number of floating regfile reads
system.cpu0.fp_regfile_writes                      33                       # number of floating regfile writes
system.cpu0.idleCycles                      146040164                       # Total number of cycles that the CPU has spent unscheduled due to idling
system.cpu0.iew.branchMispredicts             8241523                       # Number of branch mispredicts detected at execute
system.cpu0.iew.exec_branches               228857800                       # Number of branches executed
system.cpu0.iew.exec_nop                            0                       # number of nop insts executed
system.cpu0.iew.exec_rate                    0.546885                       # Inst execution rate
system.cpu0.iew.exec_refs                   415277143                       # number of memory reference insts executed
system.cpu0.iew.exec_stores                 114108419                       # Number of stores executed
system.cpu0.iew.exec_swp                            0                       # number of swp insts executed
system.cpu0.iew.iewBlockCycles              161021930                       # Number of cycles IEW is blocking
system.cpu0.iew.iewDispLoadInsts            307306924                       # Number of dispatched load instructions
system.cpu0.iew.iewDispNonSpecInsts           1969418                       # Number of dispatched non-speculative instructions
system.cpu0.iew.iewDispSquashedInsts          4718268                       # Number of squashed instructions skipped by dispatch
system.cpu0.iew.iewDispStoreInsts           117199551                       # Number of dispatched store instructions
system.cpu0.iew.iewDispatchedInsts          956780297                       # Number of instructions dispatched to IQ
system.cpu0.iew.iewExecLoadInsts            301168724                       # Number of load instructions executed
system.cpu0.iew.iewExecSquashedInsts          4023810                       # Number of squashed instructions skipped in execute
system.cpu0.iew.iewExecutedInsts            934530125                       # Number of executed instructions
system.cpu0.iew.iewIQFullEvents               1033188                       # Number of times the IQ has become full, causing a stall
system.cpu0.iew.iewIdleCycles                       0                       # Number of cycles IEW is idle
system.cpu0.iew.iewLSQFullEvents              2000475                       # Number of times the LSQ has become full, causing a stall
system.cpu0.iew.iewSquashCycles               8209795                       # Number of cycles IEW is squashing
system.cpu0.iew.iewUnblockCycles              3756844                       # Number of cycles IEW is unblocking
system.cpu0.iew.lsq.thread0.blockedLoads            0                       # Number of blocked loads due to partial load-store forwarding
system.cpu0.iew.lsq.thread0.cacheBlocked        67899                       # Number of times an access to memory failed due to the cache being blocked
system.cpu0.iew.lsq.thread0.forwLoads        17774235                       # Number of loads that had data forwarded from stores
system.cpu0.iew.lsq.thread0.ignoredResponses        11339                       # Number of memory responses ignored because the instruction is squashed
system.cpu0.iew.lsq.thread0.invAddrLoads            0                       # Number of loads ignored due to an invalid address
system.cpu0.iew.lsq.thread0.invAddrSwpfs            0                       # Number of software prefetches ignored due to an invalid address
system.cpu0.iew.lsq.thread0.memOrderViolation        10358                       # Number of memory ordering violations
system.cpu0.iew.lsq.thread0.rescheduledLoads      3564736                       # Number of loads that were rescheduled
system.cpu0.iew.lsq.thread0.squashedLoads     26892196                       # Number of loads squashed
system.cpu0.iew.lsq.thread0.squashedStores      6616550                       # Number of stores squashed
system.cpu0.iew.memOrderViolationEvents         10358                       # Number of memory order violations
system.cpu0.iew.predictedNotTakenIncorrect       886306                       # Number of branches that were predicted not taken incorrectly
system.cpu0.iew.predictedTakenIncorrect       7355217                       # Number of branches that were predicted taken incorrectly
system.cpu0.iew.wb_consumers                387193515                       # num instructions consuming a value
system.cpu0.iew.wb_count                    928345326                       # cumulative count of insts written-back
system.cpu0.iew.wb_fanout                    0.857402                       # average fanout of values written-back
system.cpu0.iew.wb_producers                331980374                       # num instructions producing a value
system.cpu0.iew.wb_rate                      0.543266                       # insts written-back per cycle
system.cpu0.iew.wb_sent                     928378277                       # cumulative count of insts sent to commit
system.cpu0.int_regfile_reads              1139746739                       # number of integer regfile reads
system.cpu0.int_regfile_writes              593014333                       # number of integer regfile writes
system.cpu0.ipc                              0.522240                       # IPC: Instructions Per Cycle
system.cpu0.ipc_total                        0.522240                       # IPC: Total IPC of All Threads
system.cpu0.iq.FU_type_0::No_OpClass          1643400      0.18%      0.18% # Type of FU issued
system.cpu0.iq.FU_type_0::IntAlu            510000943     54.34%     54.51% # Type of FU issued
system.cpu0.iq.FU_type_0::IntMult             7839125      0.84%     55.35% # Type of FU issued
system.cpu0.iq.FU_type_0::IntDiv              1639149      0.17%     55.52% # Type of FU issued
system.cpu0.iq.FU_type_0::FloatAdd                  0      0.00%     55.52% # Type of FU issued
system.cpu0.iq.FU_type_0::FloatCmp                  6      0.00%     55.52% # Type of FU issued
system.cpu0.iq.FU_type_0::FloatCvt                 16      0.00%     55.52% # Type of FU issued
system.cpu0.iq.FU_type_0::FloatMult                 0      0.00%     55.52% # Type of FU issued
system.cpu0.iq.FU_type_0::FloatMultAcc              0      0.00%     55.52% # Type of FU issued
system.cpu0.iq.FU_type_0::FloatDiv                  2      0.00%     55.52% # Type of FU issued
system.cpu0.iq.FU_type_0::FloatMisc                 6      0.00%     55.52% # Type of FU issued
system.cpu0.iq.FU_type_0::FloatSqrt                 0      0.00%     55.52% # Type of FU issued
system.cpu0.iq.FU_type_0::SimdAdd                   0      0.00%     55.52% # Type of FU issued
system.cpu0.iq.FU_type_0::SimdAddAcc                0      0.00%     55.52% # Type of FU issued
system.cpu0.iq.FU_type_0::SimdAlu                   0      0.00%     55.52% # Type of FU issued
system.cpu0.iq.FU_type_0::SimdCmp                   0      0.00%     55.52% # Type of FU issued
system.cpu0.iq.FU_type_0::SimdCvt                   0      0.00%     55.52% # Type of FU issued
system.cpu0.iq.FU_type_0::SimdMisc                  0      0.00%     55.52% # Type of FU issued
system.cpu0.iq.FU_type_0::SimdMult                  0      0.00%     55.52% # Type of FU issued
system.cpu0.iq.FU_type_0::SimdMultAcc               0      0.00%     55.52% # Type of FU issued
system.cpu0.iq.FU_type_0::SimdShift                 0      0.00%     55.52% # Type of FU issued
system.cpu0.iq.FU_type_0::SimdShiftAcc              0      0.00%     55.52% # Type of FU issued
system.cpu0.iq.FU_type_0::SimdDiv                   0      0.00%     55.52% # Type of FU issued
system.cpu0.iq.FU_type_0::SimdSqrt                  0      0.00%     55.52% # Type of FU issued
system.cpu0.iq.FU_type_0::SimdFloatAdd              0      0.00%     55.52% # Type of FU issued
system.cpu0.iq.FU_type_0::SimdFloatAlu              0      0.00%     55.52% # Type of FU issued
system.cpu0.iq.FU_type_0::SimdFloatCmp              0      0.00%     55.52% # Type of FU issued
system.cpu0.iq.FU_type_0::SimdFloatCvt              0      0.00%     55.52% # Type of FU issued
system.cpu0.iq.FU_type_0::SimdFloatDiv              0      0.00%     55.52% # Type of FU issued
system.cpu0.iq.FU_type_0::SimdFloatMisc             0      0.00%     55.52% # Type of FU issued
system.cpu0.iq.FU_type_0::SimdFloatMult             0      0.00%     55.52% # Type of FU issued
system.cpu0.iq.FU_type_0::SimdFloatMultAcc            0      0.00%     55.52% # Type of FU issued
system.cpu0.iq.FU_type_0::SimdFloatSqrt             0      0.00%     55.52% # Type of FU issued
system.cpu0.iq.FU_type_0::SimdReduceAdd             0      0.00%     55.52% # Type of FU issued
system.cpu0.iq.FU_type_0::SimdReduceAlu             0      0.00%     55.52% # Type of FU issued
system.cpu0.iq.FU_type_0::SimdReduceCmp             0      0.00%     55.52% # Type of FU issued
system.cpu0.iq.FU_type_0::SimdFloatReduceAdd            0      0.00%     55.52% # Type of FU issued
system.cpu0.iq.FU_type_0::SimdFloatReduceCmp            0      0.00%     55.52% # Type of FU issued
system.cpu0.iq.FU_type_0::SimdAes                   0      0.00%     55.52% # Type of FU issued
system.cpu0.iq.FU_type_0::SimdAesMix                0      0.00%     55.52% # Type of FU issued
system.cpu0.iq.FU_type_0::SimdSha1Hash              0      0.00%     55.52% # Type of FU issued
system.cpu0.iq.FU_type_0::SimdSha1Hash2             0      0.00%     55.52% # Type of FU issued
system.cpu0.iq.FU_type_0::SimdSha256Hash            0      0.00%     55.52% # Type of FU issued
system.cpu0.iq.FU_type_0::SimdSha256Hash2            0      0.00%     55.52% # Type of FU issued
system.cpu0.iq.FU_type_0::SimdShaSigma2             0      0.00%     55.52% # Type of FU issued
system.cpu0.iq.FU_type_0::SimdShaSigma3             0      0.00%     55.52% # Type of FU issued
system.cpu0.iq.FU_type_0::SimdPredAlu               0      0.00%     55.52% # Type of FU issued
system.cpu0.iq.FU_type_0::MemRead           303812344     32.37%     87.89% # Type of FU issued
system.cpu0.iq.FU_type_0::MemWrite          113618908     12.11%    100.00% # Type of FU issued
system.cpu0.iq.FU_type_0::FloatMemRead             14      0.00%    100.00% # Type of FU issued
system.cpu0.iq.FU_type_0::FloatMemWrite            23      0.00%    100.00% # Type of FU issued
system.cpu0.iq.FU_type_0::IprAccess                 0      0.00%    100.00% # Type of FU issued
system.cpu0.iq.FU_type_0::InstPrefetch              0      0.00%    100.00% # Type of FU issued
system.cpu0.iq.FU_type_0::total             938553936                       # Type of FU issued
system.cpu0.iq.fp_alu_accesses                     70                       # Number of floating point alu accesses
system.cpu0.iq.fp_inst_queue_reads                137                       # Number of floating instruction queue reads
system.cpu0.iq.fp_inst_queue_wakeup_accesses           67                       # Number of floating instruction queue wakeup accesses
system.cpu0.iq.fp_inst_queue_writes                69                       # Number of floating instruction queue writes
system.cpu0.iq.fu_busy_cnt                    1012344                       # FU busy when requested
system.cpu0.iq.fu_busy_rate                  0.001079                       # FU busy rate (busy events/executed inst)
system.cpu0.iq.fu_full::No_OpClass                  0      0.00%      0.00% # attempts to use FU when none available
system.cpu0.iq.fu_full::IntAlu                 176512     17.44%     17.44% # attempts to use FU when none available
system.cpu0.iq.fu_full::IntMult                     0      0.00%     17.44% # attempts to use FU when none available
system.cpu0.iq.fu_full::IntDiv                      0      0.00%     17.44% # attempts to use FU when none available
system.cpu0.iq.fu_full::FloatAdd                    0      0.00%     17.44% # attempts to use FU when none available
system.cpu0.iq.fu_full::FloatCmp                    0      0.00%     17.44% # attempts to use FU when none available
system.cpu0.iq.fu_full::FloatCvt                    0      0.00%     17.44% # attempts to use FU when none available
system.cpu0.iq.fu_full::FloatMult                   0      0.00%     17.44% # attempts to use FU when none available
system.cpu0.iq.fu_full::FloatMultAcc                0      0.00%     17.44% # attempts to use FU when none available
system.cpu0.iq.fu_full::FloatDiv                    0      0.00%     17.44% # attempts to use FU when none available
system.cpu0.iq.fu_full::FloatMisc                   0      0.00%     17.44% # attempts to use FU when none available
system.cpu0.iq.fu_full::FloatSqrt                   0      0.00%     17.44% # attempts to use FU when none available
system.cpu0.iq.fu_full::SimdAdd                     0      0.00%     17.44% # attempts to use FU when none available
system.cpu0.iq.fu_full::SimdAddAcc                  0      0.00%     17.44% # attempts to use FU when none available
system.cpu0.iq.fu_full::SimdAlu                     0      0.00%     17.44% # attempts to use FU when none available
system.cpu0.iq.fu_full::SimdCmp                     0      0.00%     17.44% # attempts to use FU when none available
system.cpu0.iq.fu_full::SimdCvt                     0      0.00%     17.44% # attempts to use FU when none available
system.cpu0.iq.fu_full::SimdMisc                    0      0.00%     17.44% # attempts to use FU when none available
system.cpu0.iq.fu_full::SimdMult                    0      0.00%     17.44% # attempts to use FU when none available
system.cpu0.iq.fu_full::SimdMultAcc                 0      0.00%     17.44% # attempts to use FU when none available
system.cpu0.iq.fu_full::SimdShift                   0      0.00%     17.44% # attempts to use FU when none available
system.cpu0.iq.fu_full::SimdShiftAcc                0      0.00%     17.44% # attempts to use FU when none available
system.cpu0.iq.fu_full::SimdDiv                     0      0.00%     17.44% # attempts to use FU when none available
system.cpu0.iq.fu_full::SimdSqrt                    0      0.00%     17.44% # attempts to use FU when none available
system.cpu0.iq.fu_full::SimdFloatAdd                0      0.00%     17.44% # attempts to use FU when none available
system.cpu0.iq.fu_full::SimdFloatAlu                0      0.00%     17.44% # attempts to use FU when none available
system.cpu0.iq.fu_full::SimdFloatCmp                0      0.00%     17.44% # attempts to use FU when none available
system.cpu0.iq.fu_full::SimdFloatCvt                0      0.00%     17.44% # attempts to use FU when none available
system.cpu0.iq.fu_full::SimdFloatDiv                0      0.00%     17.44% # attempts to use FU when none available
system.cpu0.iq.fu_full::SimdFloatMisc               0      0.00%     17.44% # attempts to use FU when none available
system.cpu0.iq.fu_full::SimdFloatMult               0      0.00%     17.44% # attempts to use FU when none available
system.cpu0.iq.fu_full::SimdFloatMultAcc            0      0.00%     17.44% # attempts to use FU when none available
system.cpu0.iq.fu_full::SimdFloatSqrt               0      0.00%     17.44% # attempts to use FU when none available
system.cpu0.iq.fu_full::SimdReduceAdd               0      0.00%     17.44% # attempts to use FU when none available
system.cpu0.iq.fu_full::SimdReduceAlu               0      0.00%     17.44% # attempts to use FU when none available
system.cpu0.iq.fu_full::SimdReduceCmp               0      0.00%     17.44% # attempts to use FU when none available
system.cpu0.iq.fu_full::SimdFloatReduceAdd            0      0.00%     17.44% # attempts to use FU when none available
system.cpu0.iq.fu_full::SimdFloatReduceCmp            0      0.00%     17.44% # attempts to use FU when none available
system.cpu0.iq.fu_full::SimdAes                     0      0.00%     17.44% # attempts to use FU when none available
system.cpu0.iq.fu_full::SimdAesMix                  0      0.00%     17.44% # attempts to use FU when none available
system.cpu0.iq.fu_full::SimdSha1Hash                0      0.00%     17.44% # attempts to use FU when none available
system.cpu0.iq.fu_full::SimdSha1Hash2               0      0.00%     17.44% # attempts to use FU when none available
system.cpu0.iq.fu_full::SimdSha256Hash              0      0.00%     17.44% # attempts to use FU when none available
system.cpu0.iq.fu_full::SimdSha256Hash2             0      0.00%     17.44% # attempts to use FU when none available
system.cpu0.iq.fu_full::SimdShaSigma2               0      0.00%     17.44% # attempts to use FU when none available
system.cpu0.iq.fu_full::SimdShaSigma3               0      0.00%     17.44% # attempts to use FU when none available
system.cpu0.iq.fu_full::SimdPredAlu                 0      0.00%     17.44% # attempts to use FU when none available
system.cpu0.iq.fu_full::MemRead                722349     71.35%     88.79% # attempts to use FU when none available
system.cpu0.iq.fu_full::MemWrite               113480     11.21%    100.00% # attempts to use FU when none available
system.cpu0.iq.fu_full::FloatMemRead                0      0.00%    100.00% # attempts to use FU when none available
system.cpu0.iq.fu_full::FloatMemWrite               3      0.00%    100.00% # attempts to use FU when none available
system.cpu0.iq.fu_full::IprAccess                   0      0.00%    100.00% # attempts to use FU when none available
system.cpu0.iq.fu_full::InstPrefetch                0      0.00%    100.00% # attempts to use FU when none available
system.cpu0.iq.int_alu_accesses             937922810                       # Number of integer alu accesses
system.cpu0.iq.int_inst_queue_reads        3440962112                       # Number of integer instruction queue reads
system.cpu0.iq.int_inst_queue_wakeup_accesses    928345259                       # Number of integer instruction queue wakeup accesses
system.cpu0.iq.int_inst_queue_writes       1020331082                       # Number of integer instruction queue writes
system.cpu0.iq.iqInstsAdded                 950892983                       # Number of instructions added to the IQ (excludes non-spec)
system.cpu0.iq.iqInstsIssued                938553936                       # Number of instructions issued
system.cpu0.iq.iqNonSpecInstsAdded            5887314                       # Number of non-speculative instructions added to the IQ
system.cpu0.iq.iqSquashedInstsExamined       63541647                       # Number of squashed instructions iterated over during squash; mainly for profiling
system.cpu0.iq.iqSquashedInstsIssued            59230                       # Number of squashed instructions issued
system.cpu0.iq.iqSquashedNonSpecRemoved       3421045                       # Number of squashed non-spec instructions that were removed
system.cpu0.iq.iqSquashedOperandsExamined     29020170                       # Number of squashed operands that are examined and possibly removed from graph
system.cpu0.iq.issued_per_cycle::samples   1562782804                       # Number of insts issued each cycle
system.cpu0.iq.issued_per_cycle::mean        0.600566                       # Number of insts issued each cycle
system.cpu0.iq.issued_per_cycle::stdev       0.798093                       # Number of insts issued each cycle
system.cpu0.iq.issued_per_cycle::underflows            0      0.00%      0.00% # Number of insts issued each cycle
system.cpu0.iq.issued_per_cycle::0          871222871     55.75%     55.75% # Number of insts issued each cycle
system.cpu0.iq.issued_per_cycle::1          491706497     31.46%     87.21% # Number of insts issued each cycle
system.cpu0.iq.issued_per_cycle::2          164076623     10.50%     97.71% # Number of insts issued each cycle
system.cpu0.iq.issued_per_cycle::3           28115588      1.80%     99.51% # Number of insts issued each cycle
system.cpu0.iq.issued_per_cycle::4            4735058      0.30%     99.81% # Number of insts issued each cycle
system.cpu0.iq.issued_per_cycle::5            2381490      0.15%     99.97% # Number of insts issued each cycle
system.cpu0.iq.issued_per_cycle::6             367555      0.02%     99.99% # Number of insts issued each cycle
system.cpu0.iq.issued_per_cycle::7             122559      0.01%    100.00% # Number of insts issued each cycle
system.cpu0.iq.issued_per_cycle::8              54563      0.00%    100.00% # Number of insts issued each cycle
system.cpu0.iq.issued_per_cycle::overflows            0      0.00%    100.00% # Number of insts issued each cycle
system.cpu0.iq.issued_per_cycle::min_value            0                       # Number of insts issued each cycle
system.cpu0.iq.issued_per_cycle::max_value            8                       # Number of insts issued each cycle
system.cpu0.iq.issued_per_cycle::total     1562782804                       # Number of insts issued each cycle
system.cpu0.iq.rate                          0.549240                       # Inst issue rate
system.cpu0.iq.vec_alu_accesses                     0                       # Number of vector alu accesses
system.cpu0.iq.vec_inst_queue_reads                 0                       # Number of vector instruction queue reads
system.cpu0.iq.vec_inst_queue_wakeup_accesses            0                       # Number of vector instruction queue wakeup accesses
system.cpu0.iq.vec_inst_queue_writes                0                       # Number of vector instruction queue writes
system.cpu0.itb.accesses                            0                       # DTB accesses
system.cpu0.itb.hits                                0                       # DTB hits
system.cpu0.itb.misses                              0                       # DTB misses
system.cpu0.itb.read_accesses                       0                       # DTB read accesses
system.cpu0.itb.read_hits                           0                       # DTB read hits
system.cpu0.itb.read_misses                         0                       # DTB read misses
system.cpu0.itb.write_accesses                      0                       # DTB write accesses
system.cpu0.itb.write_hits                          0                       # DTB write hits
system.cpu0.itb.write_misses                        0                       # DTB write misses
system.cpu0.memDep0.conflictingLoads         14951270                       # Number of conflicting loads.
system.cpu0.memDep0.conflictingStores         2531123                       # Number of conflicting stores.
system.cpu0.memDep0.insertedLoads           307306924                       # Number of loads inserted to the mem dependence unit.
system.cpu0.memDep0.insertedStores          117199551                       # Number of stores inserted to the mem dependence unit.
system.cpu0.misc_regfile_reads                   1544                       # number of misc regfile reads
system.cpu0.misc_regfile_writes                    30                       # number of misc regfile writes
system.cpu0.numCycles                      1708822968                       # number of cpu cycles simulated
system.cpu0.numWorkItemsCompleted                   0                       # number of work items this cpu completed
system.cpu0.numWorkItemsStarted                     0                       # number of work items this cpu started
system.cpu0.quiesceCycles                    25925654                       # Total number of cycles that CPU has spent quiesced or waiting for an interrupt
system.cpu0.rename.BlockCycles              168804069                       # Number of cycles rename is blocking
system.cpu0.rename.CommittedMaps            569167887                       # Number of HB maps that are committed
system.cpu0.rename.IQFullEvents               3340686                       # Number of times rename has blocked due to IQ full
system.cpu0.rename.IdleCycles               667752471                       # Number of cycles rename is idle
system.cpu0.rename.LQFullEvents               6976173                       # Number of times rename has blocked due to LQ full
system.cpu0.rename.ROBFullEvents                 4739                       # Number of times rename has blocked due to ROB full
system.cpu0.rename.RenameLookups           1183223665                       # Number of register rename lookups that rename has made
system.cpu0.rename.RenamedInsts             972117025                       # Number of instructions processed by rename
system.cpu0.rename.RenamedOperands          625074141                       # Number of destination operands rename has renamed
system.cpu0.rename.RunCycles                694470974                       # Number of cycles rename is running
system.cpu0.rename.SQFullEvents              12266223                       # Number of times rename has blocked due to SQ full
system.cpu0.rename.SquashCycles               8209795                       # Number of cycles rename is squashing
system.cpu0.rename.UnblockCycles             23261931                       # Number of cycles rename is unblocking
system.cpu0.rename.UndoneMaps                55906249                       # Number of HB maps that are undone due to squashing
system.cpu0.rename.fp_rename_lookups               56                       # Number of floating rename lookups
system.cpu0.rename.int_rename_lookups      1183223609                       # Number of integer rename lookups
system.cpu0.rename.serializeStallCycles        283564                       # count of cycles rename stalled for serializing inst
system.cpu0.rename.serializingInsts              4661                       # count of serializing insts renamed
system.cpu0.rename.skidInsts                 10012566                       # count of insts added to the skid buffer
system.cpu0.rename.tempSerializingInsts          4657                       # count of temporary serializing insts renamed
system.cpu0.rob.rob_reads                  2476702224                       # The number of ROB reads
system.cpu0.rob.rob_writes                 1928452099                       # The number of ROB writes
system.cpu0.timesIdled                       20424513                       # Number of times that the entire CPU went into an idle state and unscheduled itself
system.cpu0.workload.numSyscalls                 1500                       # Number of system calls
system.cpu1.branchPred.BTBCorrect                   0                       # Number of correct BTB predictions (this stat may not work properly.
system.cpu1.branchPred.BTBHitPct            85.437720                       # BTB Hit Percentage
system.cpu1.branchPred.BTBHits               11018966                       # Number of BTB hits
system.cpu1.branchPred.BTBLookups            12897074                       # Number of BTB lookups
system.cpu1.branchPred.RASInCorrect                 0                       # Number of incorrect RAS predictions.
system.cpu1.branchPred.condIncorrect          2837832                       # Number of conditional branches incorrect
system.cpu1.branchPred.condPredicted         17630776                       # Number of conditional branches predicted
system.cpu1.branchPred.indirectHits            256257                       # Number of indirect target hits.
system.cpu1.branchPred.indirectLookups         384336                       # Number of indirect predictor lookups.
system.cpu1.branchPred.indirectMisses          128079                       # Number of indirect misses.
system.cpu1.branchPred.lookups               20152246                       # Number of BP lookups
system.cpu1.branchPred.usedRAS                      0                       # Number of times the RAS was used to get a target.
system.cpu1.branchPredindirectMispredicted        24983                       # Number of mispredicted indirect branches.
system.cpu1.commit.amos                        819659                       # Number of atomic instructions committed
system.cpu1.commit.branchMispredicts          1973740                       # The number of times a branch was mispredicted
system.cpu1.commit.branches                  10301653                       # Number of branches committed
system.cpu1.commit.bw_lim_events               713379                       # number cycles where commit BW limit reached
system.cpu1.commit.commitNonSpecStalls        2459667                       # The number of times commit has been forced to stall to communicate backwards
system.cpu1.commit.commitSquashedInsts       28639525                       # The number of squashed insts skipped by commit
system.cpu1.commit.committedInsts            41850672                       # Number of instructions committed
system.cpu1.commit.committedOps              42670522                       # Number of ops (including micro ops) committed
system.cpu1.commit.committed_per_cycle::samples    232305409                       # Number of insts commited each cycle
system.cpu1.commit.committed_per_cycle::mean     0.183683                       # Number of insts commited each cycle
system.cpu1.commit.committed_per_cycle::stdev     0.780312                       # Number of insts commited each cycle
system.cpu1.commit.committed_per_cycle::underflows            0      0.00%      0.00% # Number of insts commited each cycle
system.cpu1.commit.committed_per_cycle::0    212733468     91.57%     91.57% # Number of insts commited each cycle
system.cpu1.commit.committed_per_cycle::1      9782594      4.21%     95.79% # Number of insts commited each cycle
system.cpu1.commit.committed_per_cycle::2      3713044      1.60%     97.38% # Number of insts commited each cycle
system.cpu1.commit.committed_per_cycle::3      3369502      1.45%     98.83% # Number of insts commited each cycle
system.cpu1.commit.committed_per_cycle::4      1102565      0.47%     99.31% # Number of insts commited each cycle
system.cpu1.commit.committed_per_cycle::5       187780      0.08%     99.39% # Number of insts commited each cycle
system.cpu1.commit.committed_per_cycle::6       624397      0.27%     99.66% # Number of insts commited each cycle
system.cpu1.commit.committed_per_cycle::7        78680      0.03%     99.69% # Number of insts commited each cycle
system.cpu1.commit.committed_per_cycle::8       713379      0.31%    100.00% # Number of insts commited each cycle
system.cpu1.commit.committed_per_cycle::overflows            0      0.00%    100.00% # Number of insts commited each cycle
system.cpu1.commit.committed_per_cycle::min_value            0                       # Number of insts commited each cycle
system.cpu1.commit.committed_per_cycle::max_value            8                       # Number of insts commited each cycle
system.cpu1.commit.committed_per_cycle::total    232305409                       # Number of insts commited each cycle
system.cpu1.commit.fp_insts                        12                       # Number of committed floating point instructions.
system.cpu1.commit.function_calls              317371                       # Number of function calls committed.
system.cpu1.commit.int_insts                 40184770                       # Number of committed integer instructions.
system.cpu1.commit.loads                     11553575                       # Number of loads committed
system.cpu1.commit.membars                    1639378                       # Number of memory barriers committed
system.cpu1.commit.op_class_0::No_OpClass      1639378      3.84%      3.84% # Class of committed instruction
system.cpu1.commit.op_class_0::IntAlu        24992285     58.57%     62.41% # Class of committed instruction
system.cpu1.commit.op_class_0::IntMult             43      0.00%     62.41% # Class of committed instruction
system.cpu1.commit.op_class_0::IntDiv              86      0.00%     62.41% # Class of committed instruction
system.cpu1.commit.op_class_0::FloatAdd             0      0.00%     62.41% # Class of committed instruction
system.cpu1.commit.op_class_0::FloatCmp             0      0.00%     62.41% # Class of committed instruction
system.cpu1.commit.op_class_0::FloatCvt             0      0.00%     62.41% # Class of committed instruction
system.cpu1.commit.op_class_0::FloatMult            0      0.00%     62.41% # Class of committed instruction
system.cpu1.commit.op_class_0::FloatMultAcc            0      0.00%     62.41% # Class of committed instruction
system.cpu1.commit.op_class_0::FloatDiv             0      0.00%     62.41% # Class of committed instruction
system.cpu1.commit.op_class_0::FloatMisc            0      0.00%     62.41% # Class of committed instruction
system.cpu1.commit.op_class_0::FloatSqrt            0      0.00%     62.41% # Class of committed instruction
system.cpu1.commit.op_class_0::SimdAdd              0      0.00%     62.41% # Class of committed instruction
system.cpu1.commit.op_class_0::SimdAddAcc            0      0.00%     62.41% # Class of committed instruction
system.cpu1.commit.op_class_0::SimdAlu              0      0.00%     62.41% # Class of committed instruction
system.cpu1.commit.op_class_0::SimdCmp              0      0.00%     62.41% # Class of committed instruction
system.cpu1.commit.op_class_0::SimdCvt              0      0.00%     62.41% # Class of committed instruction
system.cpu1.commit.op_class_0::SimdMisc             0      0.00%     62.41% # Class of committed instruction
system.cpu1.commit.op_class_0::SimdMult             0      0.00%     62.41% # Class of committed instruction
system.cpu1.commit.op_class_0::SimdMultAcc            0      0.00%     62.41% # Class of committed instruction
system.cpu1.commit.op_class_0::SimdShift            0      0.00%     62.41% # Class of committed instruction
system.cpu1.commit.op_class_0::SimdShiftAcc            0      0.00%     62.41% # Class of committed instruction
system.cpu1.commit.op_class_0::SimdDiv              0      0.00%     62.41% # Class of committed instruction
system.cpu1.commit.op_class_0::SimdSqrt             0      0.00%     62.41% # Class of committed instruction
system.cpu1.commit.op_class_0::SimdFloatAdd            0      0.00%     62.41% # Class of committed instruction
system.cpu1.commit.op_class_0::SimdFloatAlu            0      0.00%     62.41% # Class of committed instruction
system.cpu1.commit.op_class_0::SimdFloatCmp            0      0.00%     62.41% # Class of committed instruction
system.cpu1.commit.op_class_0::SimdFloatCvt            0      0.00%     62.41% # Class of committed instruction
system.cpu1.commit.op_class_0::SimdFloatDiv            0      0.00%     62.41% # Class of committed instruction
system.cpu1.commit.op_class_0::SimdFloatMisc            0      0.00%     62.41% # Class of committed instruction
system.cpu1.commit.op_class_0::SimdFloatMult            0      0.00%     62.41% # Class of committed instruction
system.cpu1.commit.op_class_0::SimdFloatMultAcc            0      0.00%     62.41% # Class of committed instruction
system.cpu1.commit.op_class_0::SimdFloatSqrt            0      0.00%     62.41% # Class of committed instruction
system.cpu1.commit.op_class_0::SimdReduceAdd            0      0.00%     62.41% # Class of committed instruction
system.cpu1.commit.op_class_0::SimdReduceAlu            0      0.00%     62.41% # Class of committed instruction
system.cpu1.commit.op_class_0::SimdReduceCmp            0      0.00%     62.41% # Class of committed instruction
system.cpu1.commit.op_class_0::SimdFloatReduceAdd            0      0.00%     62.41% # Class of committed instruction
system.cpu1.commit.op_class_0::SimdFloatReduceCmp            0      0.00%     62.41% # Class of committed instruction
system.cpu1.commit.op_class_0::SimdAes              0      0.00%     62.41% # Class of committed instruction
system.cpu1.commit.op_class_0::SimdAesMix            0      0.00%     62.41% # Class of committed instruction
system.cpu1.commit.op_class_0::SimdSha1Hash            0      0.00%     62.41% # Class of committed instruction
system.cpu1.commit.op_class_0::SimdSha1Hash2            0      0.00%     62.41% # Class of committed instruction
system.cpu1.commit.op_class_0::SimdSha256Hash            0      0.00%     62.41% # Class of committed instruction
system.cpu1.commit.op_class_0::SimdSha256Hash2            0      0.00%     62.41% # Class of committed instruction
system.cpu1.commit.op_class_0::SimdShaSigma2            0      0.00%     62.41% # Class of committed instruction
system.cpu1.commit.op_class_0::SimdShaSigma3            0      0.00%     62.41% # Class of committed instruction
system.cpu1.commit.op_class_0::SimdPredAlu            0      0.00%     62.41% # Class of committed instruction
system.cpu1.commit.op_class_0::MemRead       12373234     29.00%     91.41% # Class of committed instruction
system.cpu1.commit.op_class_0::MemWrite       3665484      8.59%    100.00% # Class of committed instruction
system.cpu1.commit.op_class_0::FloatMemRead            0      0.00%    100.00% # Class of committed instruction
system.cpu1.commit.op_class_0::FloatMemWrite           12      0.00%    100.00% # Class of committed instruction
system.cpu1.commit.op_class_0::IprAccess            0      0.00%    100.00% # Class of committed instruction
system.cpu1.commit.op_class_0::InstPrefetch            0      0.00%    100.00% # Class of committed instruction
system.cpu1.commit.op_class_0::total         42670522                       # Class of committed instruction
system.cpu1.commit.refs                      16038730                       # Number of memory references committed
system.cpu1.commit.swp_count                        0                       # Number of s/w prefetches committed
system.cpu1.commit.vec_insts                        0                       # Number of committed Vector instructions.
system.cpu1.committedInsts                   41850672                       # Number of Instructions Simulated
system.cpu1.committedOps                     42670522                       # Number of Ops (including micro ops) Simulated
system.cpu1.cpi                              5.677774                       # CPI: Cycles Per Instruction
system.cpu1.cpi_total                        5.677774                       # CPI: Total CPI of All Threads
system.cpu1.decode.BlockedCycles            178894275                       # Number of cycles decode is blocked
system.cpu1.decode.BranchMispred               868753                       # Number of times decode detected a branch misprediction
system.cpu1.decode.BranchResolved             9933021                       # Number of times decode resolved a branch
system.cpu1.decode.DecodedInsts              80700096                       # Number of instructions handled by decode
system.cpu1.decode.IdleCycles                15263359                       # Number of cycles decode is idle
system.cpu1.decode.RunCycles                 38698257                       # Number of cycles decode is running
system.cpu1.decode.SquashCycles               1974863                       # Number of cycles decode is squashing
system.cpu1.decode.SquashedInsts              2181941                       # Number of squashed instructions handled by decode
system.cpu1.decode.UnblockCycles              2235501                       # Number of cycles decode is unblocking
system.cpu1.dtb.accesses                            0                       # DTB accesses
system.cpu1.dtb.hits                                0                       # DTB hits
system.cpu1.dtb.misses                              0                       # DTB misses
system.cpu1.dtb.read_accesses                       0                       # DTB read accesses
system.cpu1.dtb.read_hits                           0                       # DTB read hits
system.cpu1.dtb.read_misses                         0                       # DTB read misses
system.cpu1.dtb.write_accesses                      0                       # DTB write accesses
system.cpu1.dtb.write_hits                          0                       # DTB write hits
system.cpu1.dtb.write_misses                        0                       # DTB write misses
system.cpu1.fetch.Branches                   20152246                       # Number of branches that fetch encountered
system.cpu1.fetch.CacheLines                 11154618                       # Number of cache lines fetched
system.cpu1.fetch.Cycles                    220628042                       # Number of cycles fetch has run and was not squashing or blocked
system.cpu1.fetch.IcacheSquashes               563536                       # Number of outstanding Icache misses that were squashed
system.cpu1.fetch.IcacheWaitRetryStallCycles           28                       # Number of stall cycles due to full MSHR
system.cpu1.fetch.Insts                      92723773                       # Number of instructions fetch has processed
system.cpu1.fetch.MiscStallCycles                   2                       # Number of cycles fetch has spent waiting on interrupts, or bad addresses, or out of MSHRs
system.cpu1.fetch.SquashCycles                5677910                       # Number of cycles fetch has spent squashing
system.cpu1.fetch.branchRate                 0.084809                       # Number of branch fetches per cycle
system.cpu1.fetch.icacheStallCycles          13599228                       # Number of cycles fetch is stalled on an Icache miss
system.cpu1.fetch.predictedBranches          11275223                       # Number of branches that fetch has predicted taken
system.cpu1.fetch.rate                       0.390221                       # Number of inst fetches per cycle
system.cpu1.fetch.rateDist::samples         237066255                       # Number of instructions fetched each cycle (Total)
system.cpu1.fetch.rateDist::mean             0.404542                       # Number of instructions fetched each cycle (Total)
system.cpu1.fetch.rateDist::stdev            0.913423                       # Number of instructions fetched each cycle (Total)
system.cpu1.fetch.rateDist::underflows              0      0.00%      0.00% # Number of instructions fetched each cycle (Total)
system.cpu1.fetch.rateDist::0               180991678     76.35%     76.35% # Number of instructions fetched each cycle (Total)
system.cpu1.fetch.rateDist::1                33022346     13.93%     90.28% # Number of instructions fetched each cycle (Total)
system.cpu1.fetch.rateDist::2                14345985      6.05%     96.33% # Number of instructions fetched each cycle (Total)
system.cpu1.fetch.rateDist::3                 4881421      2.06%     98.39% # Number of instructions fetched each cycle (Total)
system.cpu1.fetch.rateDist::4                  917249      0.39%     98.77% # Number of instructions fetched each cycle (Total)
system.cpu1.fetch.rateDist::5                 1627958      0.69%     99.46% # Number of instructions fetched each cycle (Total)
system.cpu1.fetch.rateDist::6                 1248832      0.53%     99.99% # Number of instructions fetched each cycle (Total)
system.cpu1.fetch.rateDist::7                    3409      0.00%     99.99% # Number of instructions fetched each cycle (Total)
system.cpu1.fetch.rateDist::8                   27377      0.01%    100.00% # Number of instructions fetched each cycle (Total)
system.cpu1.fetch.rateDist::overflows               0      0.00%    100.00% # Number of instructions fetched each cycle (Total)
system.cpu1.fetch.rateDist::min_value               0                       # Number of instructions fetched each cycle (Total)
system.cpu1.fetch.rateDist::max_value               8                       # Number of instructions fetched each cycle (Total)
system.cpu1.fetch.rateDist::total           237066255                       # Number of instructions fetched each cycle (Total)
system.cpu1.fp_regfile_reads                       12                       # number of floating regfile reads
system.cpu1.idleCycles                         552413                       # Total number of cycles that the CPU has spent unscheduled due to idling
system.cpu1.iew.branchMispredicts             2015855                       # Number of branch mispredicts detected at execute
system.cpu1.iew.exec_branches                13208788                       # Number of branches executed
system.cpu1.iew.exec_nop                            0                       # number of nop insts executed
system.cpu1.iew.exec_rate                    0.220048                       # Inst execution rate
system.cpu1.iew.exec_refs                    18197431                       # number of memory reference insts executed
system.cpu1.iew.exec_stores                   5267580                       # Number of stores executed
system.cpu1.iew.exec_swp                            0                       # number of swp insts executed
system.cpu1.iew.iewBlockCycles              156906822                       # Number of cycles IEW is blocking
system.cpu1.iew.iewDispLoadInsts             19529532                       # Number of dispatched load instructions
system.cpu1.iew.iewDispNonSpecInsts           1946026                       # Number of dispatched non-speculative instructions
system.cpu1.iew.iewDispSquashedInsts          1614522                       # Number of squashed instructions skipped by dispatch
system.cpu1.iew.iewDispStoreInsts             8046008                       # Number of dispatched store instructions
system.cpu1.iew.iewDispatchedInsts           71297006                       # Number of instructions dispatched to IQ
system.cpu1.iew.iewExecLoadInsts             12929851                       # Number of load instructions executed
system.cpu1.iew.iewExecSquashedInsts          1662668                       # Number of squashed instructions skipped in execute
system.cpu1.iew.iewExecutedInsts             52287403                       # Number of executed instructions
system.cpu1.iew.iewIQFullEvents                992162                       # Number of times the IQ has become full, causing a stall
system.cpu1.iew.iewIdleCycles                       0                       # Number of cycles IEW is idle
system.cpu1.iew.iewLSQFullEvents               677975                       # Number of times the LSQ has become full, causing a stall
system.cpu1.iew.iewSquashCycles               1974863                       # Number of cycles IEW is squashing
system.cpu1.iew.iewUnblockCycles              2345911                       # Number of cycles IEW is unblocking
system.cpu1.iew.lsq.thread0.blockedLoads            0                       # Number of blocked loads due to partial load-store forwarding
system.cpu1.iew.lsq.thread0.cacheBlocked        39594                       # Number of times an access to memory failed due to the cache being blocked
system.cpu1.iew.lsq.thread0.forwLoads          220751                       # Number of loads that had data forwarded from stores
system.cpu1.iew.lsq.thread0.ignoredResponses        10839                       # Number of memory responses ignored because the instruction is squashed
system.cpu1.iew.lsq.thread0.invAddrLoads            0                       # Number of loads ignored due to an invalid address
system.cpu1.iew.lsq.thread0.invAddrSwpfs            0                       # Number of software prefetches ignored due to an invalid address
system.cpu1.iew.lsq.thread0.memOrderViolation         2448                       # Number of memory ordering violations
system.cpu1.iew.lsq.thread0.rescheduledLoads         1514                       # Number of loads that were rescheduled
system.cpu1.iew.lsq.thread0.squashedLoads      7975957                       # Number of loads squashed
system.cpu1.iew.lsq.thread0.squashedStores      3560853                       # Number of stores squashed
system.cpu1.iew.memOrderViolationEvents          2448                       # Number of memory order violations
system.cpu1.iew.predictedNotTakenIncorrect       601502                       # Number of branches that were predicted not taken incorrectly
system.cpu1.iew.predictedTakenIncorrect       1414353                       # Number of branches that were predicted taken incorrectly
system.cpu1.iew.wb_consumers                 26676380                       # num instructions consuming a value
system.cpu1.iew.wb_count                     51416922                       # cumulative count of insts written-back
system.cpu1.iew.wb_fanout                    0.785408                       # average fanout of values written-back
system.cpu1.iew.wb_producers                 20951855                       # num instructions producing a value
system.cpu1.iew.wb_rate                      0.216384                       # insts written-back per cycle
system.cpu1.iew.wb_sent                      51444873                       # cumulative count of insts sent to commit
system.cpu1.int_regfile_reads                67349535                       # number of integer regfile reads
system.cpu1.int_regfile_writes               32342300                       # number of integer regfile writes
system.cpu1.ipc                              0.176125                       # IPC: Instructions Per Cycle
system.cpu1.ipc_total                        0.176125                       # IPC: Total IPC of All Threads
system.cpu1.iq.FU_type_0::No_OpClass          1639600      3.04%      3.04% # Type of FU issued
system.cpu1.iq.FU_type_0::IntAlu             33612116     62.30%     65.34% # Type of FU issued
system.cpu1.iq.FU_type_0::IntMult                  57      0.00%     65.34% # Type of FU issued
system.cpu1.iq.FU_type_0::IntDiv                   86      0.00%     65.34% # Type of FU issued
system.cpu1.iq.FU_type_0::FloatAdd                  0      0.00%     65.34% # Type of FU issued
system.cpu1.iq.FU_type_0::FloatCmp                  0      0.00%     65.34% # Type of FU issued
system.cpu1.iq.FU_type_0::FloatCvt                  0      0.00%     65.34% # Type of FU issued
system.cpu1.iq.FU_type_0::FloatMult                 0      0.00%     65.34% # Type of FU issued
system.cpu1.iq.FU_type_0::FloatMultAcc              0      0.00%     65.34% # Type of FU issued
system.cpu1.iq.FU_type_0::FloatDiv                  0      0.00%     65.34% # Type of FU issued
system.cpu1.iq.FU_type_0::FloatMisc                 0      0.00%     65.34% # Type of FU issued
system.cpu1.iq.FU_type_0::FloatSqrt                 0      0.00%     65.34% # Type of FU issued
system.cpu1.iq.FU_type_0::SimdAdd                   0      0.00%     65.34% # Type of FU issued
system.cpu1.iq.FU_type_0::SimdAddAcc                0      0.00%     65.34% # Type of FU issued
system.cpu1.iq.FU_type_0::SimdAlu                   0      0.00%     65.34% # Type of FU issued
system.cpu1.iq.FU_type_0::SimdCmp                   0      0.00%     65.34% # Type of FU issued
system.cpu1.iq.FU_type_0::SimdCvt                   0      0.00%     65.34% # Type of FU issued
system.cpu1.iq.FU_type_0::SimdMisc                  0      0.00%     65.34% # Type of FU issued
system.cpu1.iq.FU_type_0::SimdMult                  0      0.00%     65.34% # Type of FU issued
system.cpu1.iq.FU_type_0::SimdMultAcc               0      0.00%     65.34% # Type of FU issued
system.cpu1.iq.FU_type_0::SimdShift                 0      0.00%     65.34% # Type of FU issued
system.cpu1.iq.FU_type_0::SimdShiftAcc              0      0.00%     65.34% # Type of FU issued
system.cpu1.iq.FU_type_0::SimdDiv                   0      0.00%     65.34% # Type of FU issued
system.cpu1.iq.FU_type_0::SimdSqrt                  0      0.00%     65.34% # Type of FU issued
system.cpu1.iq.FU_type_0::SimdFloatAdd              0      0.00%     65.34% # Type of FU issued
system.cpu1.iq.FU_type_0::SimdFloatAlu              0      0.00%     65.34% # Type of FU issued
system.cpu1.iq.FU_type_0::SimdFloatCmp              0      0.00%     65.34% # Type of FU issued
system.cpu1.iq.FU_type_0::SimdFloatCvt              0      0.00%     65.34% # Type of FU issued
system.cpu1.iq.FU_type_0::SimdFloatDiv              0      0.00%     65.34% # Type of FU issued
system.cpu1.iq.FU_type_0::SimdFloatMisc             0      0.00%     65.34% # Type of FU issued
system.cpu1.iq.FU_type_0::SimdFloatMult             0      0.00%     65.34% # Type of FU issued
system.cpu1.iq.FU_type_0::SimdFloatMultAcc            0      0.00%     65.34% # Type of FU issued
system.cpu1.iq.FU_type_0::SimdFloatSqrt             0      0.00%     65.34% # Type of FU issued
system.cpu1.iq.FU_type_0::SimdReduceAdd             0      0.00%     65.34% # Type of FU issued
system.cpu1.iq.FU_type_0::SimdReduceAlu             0      0.00%     65.34% # Type of FU issued
system.cpu1.iq.FU_type_0::SimdReduceCmp             0      0.00%     65.34% # Type of FU issued
system.cpu1.iq.FU_type_0::SimdFloatReduceAdd            0      0.00%     65.34% # Type of FU issued
system.cpu1.iq.FU_type_0::SimdFloatReduceCmp            0      0.00%     65.34% # Type of FU issued
system.cpu1.iq.FU_type_0::SimdAes                   0      0.00%     65.34% # Type of FU issued
system.cpu1.iq.FU_type_0::SimdAesMix                0      0.00%     65.34% # Type of FU issued
system.cpu1.iq.FU_type_0::SimdSha1Hash              0      0.00%     65.34% # Type of FU issued
system.cpu1.iq.FU_type_0::SimdSha1Hash2             0      0.00%     65.34% # Type of FU issued
system.cpu1.iq.FU_type_0::SimdSha256Hash            0      0.00%     65.34% # Type of FU issued
system.cpu1.iq.FU_type_0::SimdSha256Hash2            0      0.00%     65.34% # Type of FU issued
system.cpu1.iq.FU_type_0::SimdShaSigma2             0      0.00%     65.34% # Type of FU issued
system.cpu1.iq.FU_type_0::SimdShaSigma3             0      0.00%     65.34% # Type of FU issued
system.cpu1.iq.FU_type_0::SimdPredAlu               0      0.00%     65.34% # Type of FU issued
system.cpu1.iq.FU_type_0::MemRead            14105044     26.14%     91.49% # Type of FU issued
system.cpu1.iq.FU_type_0::MemWrite            4593156      8.51%    100.00% # Type of FU issued
system.cpu1.iq.FU_type_0::FloatMemRead              0      0.00%    100.00% # Type of FU issued
system.cpu1.iq.FU_type_0::FloatMemWrite            12      0.00%    100.00% # Type of FU issued
system.cpu1.iq.FU_type_0::IprAccess                 0      0.00%    100.00% # Type of FU issued
system.cpu1.iq.FU_type_0::InstPrefetch              0      0.00%    100.00% # Type of FU issued
system.cpu1.iq.FU_type_0::total              53950071                       # Type of FU issued
system.cpu1.iq.fp_alu_accesses                     15                       # Number of floating point alu accesses
system.cpu1.iq.fp_inst_queue_reads                 27                       # Number of floating instruction queue reads
system.cpu1.iq.fp_inst_queue_wakeup_accesses           12                       # Number of floating instruction queue wakeup accesses
system.cpu1.iq.fp_inst_queue_writes                12                       # Number of floating instruction queue writes
system.cpu1.iq.fu_busy_cnt                     918531                       # FU busy when requested
system.cpu1.iq.fu_busy_rate                  0.017026                       # FU busy rate (busy events/executed inst)
system.cpu1.iq.fu_full::No_OpClass                  0      0.00%      0.00% # attempts to use FU when none available
system.cpu1.iq.fu_full::IntAlu                 146436     15.94%     15.94% # attempts to use FU when none available
system.cpu1.iq.fu_full::IntMult                     0      0.00%     15.94% # attempts to use FU when none available
system.cpu1.iq.fu_full::IntDiv                      0      0.00%     15.94% # attempts to use FU when none available
system.cpu1.iq.fu_full::FloatAdd                    0      0.00%     15.94% # attempts to use FU when none available
system.cpu1.iq.fu_full::FloatCmp                    0      0.00%     15.94% # attempts to use FU when none available
system.cpu1.iq.fu_full::FloatCvt                    0      0.00%     15.94% # attempts to use FU when none available
system.cpu1.iq.fu_full::FloatMult                   0      0.00%     15.94% # attempts to use FU when none available
system.cpu1.iq.fu_full::FloatMultAcc                0      0.00%     15.94% # attempts to use FU when none available
system.cpu1.iq.fu_full::FloatDiv                    0      0.00%     15.94% # attempts to use FU when none available
system.cpu1.iq.fu_full::FloatMisc                   0      0.00%     15.94% # attempts to use FU when none available
system.cpu1.iq.fu_full::FloatSqrt                   0      0.00%     15.94% # attempts to use FU when none available
system.cpu1.iq.fu_full::SimdAdd                     0      0.00%     15.94% # attempts to use FU when none available
system.cpu1.iq.fu_full::SimdAddAcc                  0      0.00%     15.94% # attempts to use FU when none available
system.cpu1.iq.fu_full::SimdAlu                     0      0.00%     15.94% # attempts to use FU when none available
system.cpu1.iq.fu_full::SimdCmp                     0      0.00%     15.94% # attempts to use FU when none available
system.cpu1.iq.fu_full::SimdCvt                     0      0.00%     15.94% # attempts to use FU when none available
system.cpu1.iq.fu_full::SimdMisc                    0      0.00%     15.94% # attempts to use FU when none available
system.cpu1.iq.fu_full::SimdMult                    0      0.00%     15.94% # attempts to use FU when none available
system.cpu1.iq.fu_full::SimdMultAcc                 0      0.00%     15.94% # attempts to use FU when none available
system.cpu1.iq.fu_full::SimdShift                   0      0.00%     15.94% # attempts to use FU when none available
system.cpu1.iq.fu_full::SimdShiftAcc                0      0.00%     15.94% # attempts to use FU when none available
system.cpu1.iq.fu_full::SimdDiv                     0      0.00%     15.94% # attempts to use FU when none available
system.cpu1.iq.fu_full::SimdSqrt                    0      0.00%     15.94% # attempts to use FU when none available
system.cpu1.iq.fu_full::SimdFloatAdd                0      0.00%     15.94% # attempts to use FU when none available
system.cpu1.iq.fu_full::SimdFloatAlu                0      0.00%     15.94% # attempts to use FU when none available
system.cpu1.iq.fu_full::SimdFloatCmp                0      0.00%     15.94% # attempts to use FU when none available
system.cpu1.iq.fu_full::SimdFloatCvt                0      0.00%     15.94% # attempts to use FU when none available
system.cpu1.iq.fu_full::SimdFloatDiv                0      0.00%     15.94% # attempts to use FU when none available
system.cpu1.iq.fu_full::SimdFloatMisc               0      0.00%     15.94% # attempts to use FU when none available
system.cpu1.iq.fu_full::SimdFloatMult               0      0.00%     15.94% # attempts to use FU when none available
system.cpu1.iq.fu_full::SimdFloatMultAcc            0      0.00%     15.94% # attempts to use FU when none available
system.cpu1.iq.fu_full::SimdFloatSqrt               0      0.00%     15.94% # attempts to use FU when none available
system.cpu1.iq.fu_full::SimdReduceAdd               0      0.00%     15.94% # attempts to use FU when none available
system.cpu1.iq.fu_full::SimdReduceAlu               0      0.00%     15.94% # attempts to use FU when none available
system.cpu1.iq.fu_full::SimdReduceCmp               0      0.00%     15.94% # attempts to use FU when none available
system.cpu1.iq.fu_full::SimdFloatReduceAdd            0      0.00%     15.94% # attempts to use FU when none available
system.cpu1.iq.fu_full::SimdFloatReduceCmp            0      0.00%     15.94% # attempts to use FU when none available
system.cpu1.iq.fu_full::SimdAes                     0      0.00%     15.94% # attempts to use FU when none available
system.cpu1.iq.fu_full::SimdAesMix                  0      0.00%     15.94% # attempts to use FU when none available
system.cpu1.iq.fu_full::SimdSha1Hash                0      0.00%     15.94% # attempts to use FU when none available
system.cpu1.iq.fu_full::SimdSha1Hash2               0      0.00%     15.94% # attempts to use FU when none available
system.cpu1.iq.fu_full::SimdSha256Hash              0      0.00%     15.94% # attempts to use FU when none available
system.cpu1.iq.fu_full::SimdSha256Hash2             0      0.00%     15.94% # attempts to use FU when none available
system.cpu1.iq.fu_full::SimdShaSigma2               0      0.00%     15.94% # attempts to use FU when none available
system.cpu1.iq.fu_full::SimdShaSigma3               0      0.00%     15.94% # attempts to use FU when none available
system.cpu1.iq.fu_full::SimdPredAlu                 0      0.00%     15.94% # attempts to use FU when none available
system.cpu1.iq.fu_full::MemRead                676191     73.62%     89.56% # attempts to use FU when none available
[...]
system.cpu1.dcache.WriteReq_mshr_misses::total       409705                       # number of WriteReq MSHR misses
system.cpu1.dcache.WriteReq_mshr_miss_latency::.cpu1.data  35053582839                       # number of WriteReq MSHR miss cycles
system.cpu1.dcache.WriteReq_mshr_miss_latency::total  35053582839                       # number of WriteReq MSHR miss cycles
system.cpu1.dcache.WriteReq_mshr_miss_rate::.cpu1.data     0.068404                       # mshr miss rate for WriteReq accesses
system.cpu1.dcache.WriteReq_mshr_miss_rate::total     0.068404                       # mshr miss rate for WriteReq accesses
system.cpu1.dcache.WriteReq_avg_mshr_miss_latency::.cpu1.data 85558.103609                       # average WriteReq mshr miss latency
system.cpu1.dcache.WriteReq_avg_mshr_miss_latency::total 85558.103609                       # average WriteReq mshr miss latency
system.cpu1.dcache.LoadLockedReq_hits::.cpu1.data         4380                       # number of LoadLockedReq hits
system.cpu1.dcache.LoadLockedReq_hits::total         4380                       # number of LoadLockedReq hits
system.cpu1.dcache.LoadLockedReq_misses::.cpu1.data         1323                       # number of LoadLockedReq misses
system.cpu1.dcache.LoadLockedReq_misses::total         1323                       # number of LoadLockedReq misses
system.cpu1.dcache.LoadLockedReq_miss_latency::.cpu1.data     65153000                       # number of LoadLockedReq miss cycles
system.cpu1.dcache.LoadLockedReq_miss_latency::total     65153000                       # number of LoadLockedReq miss cycles
system.cpu1.dcache.LoadLockedReq_accesses::.cpu1.data         5703                       # number of LoadLockedReq accesses(hits+misses)
system.cpu1.dcache.LoadLockedReq_accesses::total         5703                       # number of LoadLockedReq accesses(hits+misses)
system.cpu1.dcache.LoadLockedReq_miss_rate::.cpu1.data     0.231983                       # miss rate for LoadLockedReq accesses
system.cpu1.dcache.LoadLockedReq_miss_rate::total     0.231983                       # miss rate for LoadLockedReq accesses
system.cpu1.dcache.LoadLockedReq_avg_miss_latency::.cpu1.data 49246.409675                       # average LoadLockedReq miss latency
system.cpu1.dcache.LoadLockedReq_avg_miss_latency::total 49246.409675                       # average LoadLockedReq miss latency
system.cpu1.dcache.LoadLockedReq_mshr_hits::.cpu1.data          308                       # number of LoadLockedReq MSHR hits
system.cpu1.dcache.LoadLockedReq_mshr_hits::total          308                       # number of LoadLockedReq MSHR hits
system.cpu1.dcache.LoadLockedReq_mshr_misses::.cpu1.data         1015                       # number of LoadLockedReq MSHR misses
system.cpu1.dcache.LoadLockedReq_mshr_misses::total         1015                       # number of LoadLockedReq MSHR misses
system.cpu1.dcache.LoadLockedReq_mshr_miss_latency::.cpu1.data     38484500                       # number of LoadLockedReq MSHR miss cycles
system.cpu1.dcache.LoadLockedReq_mshr_miss_latency::total     38484500                       # number of LoadLockedReq MSHR miss cycles
system.cpu1.dcache.LoadLockedReq_mshr_miss_rate::.cpu1.data     0.177977                       # mshr miss rate for LoadLockedReq accesses
system.cpu1.dcache.LoadLockedReq_mshr_miss_rate::total     0.177977                       # mshr miss rate for LoadLockedReq accesses
system.cpu1.dcache.LoadLockedReq_avg_mshr_miss_latency::.cpu1.data 37915.763547                       # average LoadLockedReq mshr miss latency
system.cpu1.dcache.LoadLockedReq_avg_mshr_miss_latency::total 37915.763547                       # average LoadLockedReq mshr miss latency
system.cpu1.dcache.StoreCondReq_hits::.cpu1.data         2471                       # number of StoreCondReq hits
system.cpu1.dcache.StoreCondReq_hits::total         2471                       # number of StoreCondReq hits
system.cpu1.dcache.StoreCondReq_misses::.cpu1.data         1903                       # number of StoreCondReq misses
system.cpu1.dcache.StoreCondReq_misses::total         1903                       # number of StoreCondReq misses
system.cpu1.dcache.StoreCondReq_miss_latency::.cpu1.data     14937500                       # number of StoreCondReq miss cycles
system.cpu1.dcache.StoreCondReq_miss_latency::total     14937500                       # number of StoreCondReq miss cycles
system.cpu1.dcache.StoreCondReq_accesses::.cpu1.data         4374                       # number of StoreCondReq accesses(hits+misses)
system.cpu1.dcache.StoreCondReq_accesses::total         4374                       # number of StoreCondReq accesses(hits+misses)
system.cpu1.dcache.StoreCondReq_miss_rate::.cpu1.data     0.435071                       # miss rate for StoreCondReq accesses
system.cpu1.dcache.StoreCondReq_miss_rate::total     0.435071                       # miss rate for StoreCondReq accesses
system.cpu1.dcache.StoreCondReq_avg_miss_latency::.cpu1.data  7849.448240                       # average StoreCondReq miss latency
system.cpu1.dcache.StoreCondReq_avg_miss_latency::total  7849.448240                       # average StoreCondReq miss latency
system.cpu1.dcache.StoreCondReq_mshr_misses::.cpu1.data         1845                       # number of StoreCondReq MSHR misses
system.cpu1.dcache.StoreCondReq_mshr_misses::total         1845                       # number of StoreCondReq MSHR misses
system.cpu1.dcache.StoreCondReq_mshr_miss_latency::.cpu1.data     13295500                       # number of StoreCondReq MSHR miss cycles
system.cpu1.dcache.StoreCondReq_mshr_miss_latency::total     13295500                       # number of StoreCondReq MSHR miss cycles
system.cpu1.dcache.StoreCondReq_mshr_miss_rate::.cpu1.data     0.421811                       # mshr miss rate for StoreCondReq accesses
system.cpu1.dcache.StoreCondReq_mshr_miss_rate::total     0.421811                       # mshr miss rate for StoreCondReq accesses
system.cpu1.dcache.StoreCondReq_avg_mshr_miss_latency::.cpu1.data  7206.233062                       # average StoreCondReq mshr miss latency
system.cpu1.dcache.StoreCondReq_avg_mshr_miss_latency::total  7206.233062                       # average StoreCondReq mshr miss latency
system.cpu1.dcache.StoreCondFailReq_miss_latency::.cpu1.data      3128500                       # number of StoreCondFailReq miss cycles
system.cpu1.dcache.StoreCondFailReq_miss_latency::total      3128500                       # number of StoreCondFailReq miss cycles
system.cpu1.dcache.StoreCondFailReq_avg_miss_latency::.cpu1.data          inf                       # average StoreCondFailReq miss latency
system.cpu1.dcache.StoreCondFailReq_avg_miss_latency::total          inf                       # average StoreCondFailReq miss latency
system.cpu1.dcache.StoreCondFailReq_mshr_miss_latency::.cpu1.data      2925500                       # number of StoreCondFailReq MSHR miss cycles
system.cpu1.dcache.StoreCondFailReq_mshr_miss_latency::total      2925500                       # number of StoreCondFailReq MSHR miss cycles
system.cpu1.dcache.StoreCondFailReq_avg_mshr_miss_latency::.cpu1.data          inf                       # average StoreCondFailReq mshr miss latency
system.cpu1.dcache.StoreCondFailReq_avg_mshr_miss_latency::total          inf                       # average StoreCondFailReq mshr miss latency
system.cpu1.dcache.SwapReq_hits::.cpu1.data         1904                       # number of SwapReq hits
system.cpu1.dcache.SwapReq_hits::total           1904                       # number of SwapReq hits
system.cpu1.dcache.SwapReq_misses::.cpu1.data        46590                       # number of SwapReq misses
system.cpu1.dcache.SwapReq_misses::total        46590                       # number of SwapReq misses
system.cpu1.dcache.SwapReq_miss_latency::.cpu1.data   1935218500                       # number of SwapReq miss cycles
system.cpu1.dcache.SwapReq_miss_latency::total   1935218500                       # number of SwapReq miss cycles
system.cpu1.dcache.SwapReq_accesses::.cpu1.data        48494                       # number of SwapReq accesses(hits+misses)
system.cpu1.dcache.SwapReq_accesses::total        48494                       # number of SwapReq accesses(hits+misses)
system.cpu1.dcache.SwapReq_miss_rate::.cpu1.data     0.960737                       # miss rate for SwapReq accesses
system.cpu1.dcache.SwapReq_miss_rate::total     0.960737                       # miss rate for SwapReq accesses
system.cpu1.dcache.SwapReq_avg_miss_latency::.cpu1.data 41537.207555                       # average SwapReq miss latency
system.cpu1.dcache.SwapReq_avg_miss_latency::total 41537.207555                       # average SwapReq miss latency
system.cpu1.dcache.SwapReq_mshr_misses::.cpu1.data        46590                       # number of SwapReq MSHR misses
system.cpu1.dcache.SwapReq_mshr_misses::total        46590                       # number of SwapReq MSHR misses
system.cpu1.dcache.SwapReq_mshr_miss_latency::.cpu1.data   1888628500                       # number of SwapReq MSHR miss cycles
system.cpu1.dcache.SwapReq_mshr_miss_latency::total   1888628500                       # number of SwapReq MSHR miss cycles
system.cpu1.dcache.SwapReq_mshr_miss_rate::.cpu1.data     0.960737                       # mshr miss rate for SwapReq accesses
system.cpu1.dcache.SwapReq_mshr_miss_rate::total     0.960737                       # mshr miss rate for SwapReq accesses
system.cpu1.dcache.SwapReq_avg_mshr_miss_latency::.cpu1.data 40537.207555                       # average SwapReq mshr miss latency
system.cpu1.dcache.SwapReq_avg_mshr_miss_latency::total 40537.207555                       # average SwapReq mshr miss latency
system.cpu1.dcache.tags.pwrStateResidencyTicks::UNDEFINED 1492086989500                       # Cumulative time (in ticks) in various power states
system.cpu1.dcache.tags.tagsinuse           31.956921                       # Cycle average of tags in use
system.cpu1.dcache.tags.total_refs           98893663                       # Total number of references to valid blocks.
system.cpu1.dcache.tags.sampled_refs         51486609                       # Sample count of references to valid blocks.
system.cpu1.dcache.tags.avg_refs             1.920765                       # Average number of references to valid blocks.
system.cpu1.dcache.tags.warmup_cycle                0                       # Cycle when the warmup percentage was hit.
system.cpu1.dcache.tags.occ_blocks::.cpu1.data    31.956921                       # Average occupied blocks per requestor
system.cpu1.dcache.tags.occ_percent::.cpu1.data     0.998654                       # Average percentage of cache occupancy
system.cpu1.dcache.tags.occ_percent::total     0.998654                       # Average percentage of cache occupancy
system.cpu1.dcache.tags.occ_task_id_blocks::1024           29                       # Occupied blocks per task id
system.cpu1.dcache.tags.age_task_id_blocks_1024::1           29                       # Occupied blocks per task id
system.cpu1.dcache.tags.occ_task_id_percent::1024     0.906250                       # Percentage of cache occupancy per task id
system.cpu1.dcache.tags.tag_accesses        295006184                       # Number of tag accesses
system.cpu1.dcache.tags.data_accesses       295006184                       # Number of data accesses
system.cpu_clk_domain.clock                       500                       # Clock period in ticks
system.tol2bus.pwrStateResidencyTicks::UNDEFINED 1492086989500                       # Cumulative time (in ticks) in various power states
system.tol2bus.trans_dist::ReadResp         204368726                       # Transaction distribution
system.tol2bus.trans_dist::ReadRespWithInvalidate           33                       # Transaction distribution
system.tol2bus.trans_dist::WritebackDirty      7352841                       # Transaction distribution
system.tol2bus.trans_dist::WritebackClean    201962678                       # Transaction distribution
system.tol2bus.trans_dist::CleanEvict       371469250                       # Transaction distribution
system.tol2bus.trans_dist::UpgradeReq           32605                       # Transaction distribution
system.tol2bus.trans_dist::SCUpgradeReq          8122                       # Transaction distribution
system.tol2bus.trans_dist::UpgradeResp          40727                       # Transaction distribution
system.tol2bus.trans_dist::SCUpgradeFailReq          570                       # Transaction distribution
system.tol2bus.trans_dist::UpgradeFailResp          570                       # Transaction distribution
system.tol2bus.trans_dist::ReadExReq          1820387                       # Transaction distribution
system.tol2bus.trans_dist::ReadExResp         1820387                       # Transaction distribution
system.tol2bus.trans_dist::ReadCleanReq        182948                       # Transaction distribution
system.tol2bus.trans_dist::ReadSharedReq    204185812                       # Transaction distribution
system.tol2bus.pkt_count_system.cpu0.icache.mem_side::system.l2.cpu_side       330382                       # Packet count per connected master and slave (bytes)
system.tol2bus.pkt_count_system.cpu0.dcache.mem_side::system.l2.cpu_side    154563142                       # Packet count per connected master and slave (bytes)
system.tol2bus.pkt_count_system.cpu1.icache.mem_side::system.l2.cpu_side        70830                       # Packet count per connected master and slave (bytes)
system.tol2bus.pkt_count_system.cpu1.dcache.mem_side::system.l2.cpu_side    154427396                       # Packet count per connected master and slave (bytes)
system.tol2bus.pkt_count_system.cpu2.icache.mem_side::system.l2.cpu_side        74613                       # Packet count per connected master and slave (bytes)
system.tol2bus.pkt_count_system.cpu2.dcache.mem_side::system.l2.cpu_side    154415579                       # Packet count per connected master and slave (bytes)
system.tol2bus.pkt_count_system.cpu3.icache.mem_side::system.l2.cpu_side        73017                       # Packet count per connected master and slave (bytes)
system.tol2bus.pkt_count_system.cpu3.dcache.mem_side::system.l2.cpu_side    154481815                       # Packet count per connected master and slave (bytes)
system.tol2bus.pkt_count::total             618436774                       # Packet count per connected master and slave (bytes)
system.tol2bus.pkt_size_system.cpu0.icache.mem_side::system.l2.cpu_side     14096256                       # Cumulative packet size per connected master and slave (bytes)
system.tol2bus.pkt_size_system.cpu0.dcache.mem_side::system.l2.cpu_side   6593171008                       # Cumulative packet size per connected master and slave (bytes)
system.tol2bus.pkt_size_system.cpu1.icache.mem_side::system.l2.cpu_side      3022080                       # Cumulative packet size per connected master and slave (bytes)
system.tol2bus.pkt_size_system.cpu1.dcache.mem_side::system.l2.cpu_side   6587380480                       # Cumulative packet size per connected master and slave (bytes)
system.tol2bus.pkt_size_system.cpu2.icache.mem_side::system.l2.cpu_side      3183488                       # Cumulative packet size per connected master and slave (bytes)
system.tol2bus.pkt_size_system.cpu2.dcache.mem_side::system.l2.cpu_side   6586811840                       # Cumulative packet size per connected master and slave (bytes)
system.tol2bus.pkt_size_system.cpu3.icache.mem_side::system.l2.cpu_side      3115392                       # Cumulative packet size per connected master and slave (bytes)
system.tol2bus.pkt_size_system.cpu3.dcache.mem_side::system.l2.cpu_side   6589618944                       # Cumulative packet size per connected master and slave (bytes)
system.tol2bus.pkt_size::total            26380399488                       # Cumulative packet size per connected master and slave (bytes)
system.tol2bus.snoops                       374808882                       # Total snoops (count)
system.tol2bus.snoopTraffic                 211935552                       # Total snoop traffic (bytes)
system.tol2bus.snoop_fanout::samples        580915471                       # Request fanout histogram
system.tol2bus.snoop_fanout::mean            0.364083                       # Request fanout histogram
system.tol2bus.snoop_fanout::stdev           0.519764                       # Request fanout histogram
system.tol2bus.snoop_fanout::underflows             0      0.00%      0.00% # Request fanout histogram
system.tol2bus.snoop_fanout::0              379752464     65.37%     65.37% # Request fanout histogram
system.tol2bus.snoop_fanout::1              191674661     33.00%     98.37% # Request fanout histogram
system.tol2bus.snoop_fanout::2                8668704      1.49%     99.86% # Request fanout histogram
system.tol2bus.snoop_fanout::3                 788913      0.14%     99.99% # Request fanout histogram
system.tol2bus.snoop_fanout::4                  30729      0.01%    100.00% # Request fanout histogram
system.tol2bus.snoop_fanout::5                      0      0.00%    100.00% # Request fanout histogram
system.tol2bus.snoop_fanout::6                      0      0.00%    100.00% # Request fanout histogram
system.tol2bus.snoop_fanout::7                      0      0.00%    100.00% # Request fanout histogram
system.tol2bus.snoop_fanout::8                      0      0.00%    100.00% # Request fanout histogram
system.tol2bus.snoop_fanout::overflows              0      0.00%    100.00% # Request fanout histogram
system.tol2bus.snoop_fanout::min_value              0                       # Request fanout histogram
system.tol2bus.snoop_fanout::max_value              4                       # Request fanout histogram
system.tol2bus.snoop_fanout::total          580915471                       # Request fanout histogram
system.tol2bus.reqLayer0.occupancy       412266259050                       # Layer occupancy (ticks)
system.tol2bus.reqLayer0.utilization             27.6                       # Layer utilization (%)
system.tol2bus.respLayer5.occupancy       77385607080                       # Layer occupancy (ticks)
system.tol2bus.respLayer5.utilization             5.2                       # Layer utilization (%)
system.tol2bus.respLayer4.occupancy          38688544                       # Layer occupancy (ticks)
system.tol2bus.respLayer4.utilization             0.0                       # Layer utilization (%)
system.tol2bus.respLayer7.occupancy       77419252124                       # Layer occupancy (ticks)
system.tol2bus.respLayer7.utilization             5.2                       # Layer utilization (%)
system.tol2bus.respLayer6.occupancy          37831692                       # Layer occupancy (ticks)
system.tol2bus.respLayer6.utilization             0.0                       # Layer utilization (%)
system.tol2bus.respLayer1.occupancy       77458836164                       # Layer occupancy (ticks)
system.tol2bus.respLayer1.utilization             5.2                       # Layer utilization (%)
system.tol2bus.respLayer0.occupancy         165686773                       # Layer occupancy (ticks)
system.tol2bus.respLayer0.utilization             0.0                       # Layer utilization (%)
system.tol2bus.respLayer3.occupancy       77390407805                       # Layer occupancy (ticks)
system.tol2bus.respLayer3.utilization             5.2                       # Layer utilization (%)
system.tol2bus.respLayer2.occupancy          36808604                       # Layer occupancy (ticks)
system.tol2bus.respLayer2.utilization             0.0                       # Layer utilization (%)

---------- End Simulation Statistics   ----------
