
---------- Begin Simulation Statistics ----------
final_tick                                44057652000                       # Number of ticks from beginning of simulation (restored from checkpoints and never reset)
host_inst_rate                                  78591                       # Simulator instruction rate (inst/s)
host_mem_usage                                 738304                       # Number of bytes of host memory used
host_op_rate                                    78918                       # Simulator op (including micro ops) rate (op/s)
host_seconds                                   805.13                       # Real time elapsed on the host
host_tick_rate                               54720853                       # Simulator tick rate (ticks/s)
sim_freq                                 1000000000000                       # Frequency of simulated ticks
sim_insts                                    63276488                       # Number of instructions simulated
sim_ops                                      63539446                       # Number of ops (including micro ops) simulated
sim_seconds                                  0.044058                       # Number of seconds simulated
sim_ticks                                 44057652000                       # Number of ticks simulated
system.cpu0.branchPred.BTBCorrect                   0                       # Number of correct BTB predictions (this stat may not work properly.
system.cpu0.branchPred.BTBHitPct            84.709613                       # BTB Hit Percentage
system.cpu0.branchPred.BTBHits               11288431                       # Number of BTB hits
system.cpu0.branchPred.BTBLookups            13326033                       # Number of BTB lookups
system.cpu0.branchPred.RASInCorrect                 0                       # Number of incorrect RAS predictions.
system.cpu0.branchPred.condIncorrect          2818941                       # Number of conditional branches incorrect
system.cpu0.branchPred.condPredicted         12486362                       # Number of conditional branches predicted
system.cpu0.branchPred.indirectHits            932651                       # Number of indirect target hits.
system.cpu0.branchPred.indirectLookups         939215                       # Number of indirect predictor lookups.
system.cpu0.branchPred.indirectMisses            6564                       # Number of indirect misses.
system.cpu0.branchPred.lookups               15463921                       # Number of BP lookups
system.cpu0.branchPred.usedRAS                      0                       # Number of times the RAS was used to get a target.
system.cpu0.branchPredindirectMispredicted         4000                       # Number of mispredicted indirect branches.
system.cpu0.commit.amos                         65824                       # Number of atomic instructions committed
system.cpu0.commit.branchMispredicts          1517456                       # The number of times a branch was mispredicted
system.cpu0.commit.branches                   8106852                       # Number of branches committed
system.cpu0.commit.bw_lim_events               372757                       # number cycles where commit BW limit reached
system.cpu0.commit.commitNonSpecStalls         197957                       # The number of times commit has been forced to stall to communicate backwards
system.cpu0.commit.commitSquashedInsts       21169973                       # The number of squashed insts skipped by commit
system.cpu0.commit.committedInsts            52853543                       # Number of instructions committed
system.cpu0.commit.committedOps              52919342                       # Number of ops (including micro ops) committed
system.cpu0.commit.committed_per_cycle::samples     82928392                       # Number of insts commited each cycle
system.cpu0.commit.committed_per_cycle::mean     0.638133                       # Number of insts commited each cycle
system.cpu0.commit.committed_per_cycle::stdev     1.114755                       # Number of insts commited each cycle
system.cpu0.commit.committed_per_cycle::underflows            0      0.00%      0.00% # Number of insts commited each cycle
system.cpu0.commit.committed_per_cycle::0     53388846     64.38%     64.38% # Number of insts commited each cycle
system.cpu0.commit.committed_per_cycle::1     15512815     18.71%     83.09% # Number of insts commited each cycle
system.cpu0.commit.committed_per_cycle::2      8749666     10.55%     93.64% # Number of insts commited each cycle
system.cpu0.commit.committed_per_cycle::3      3674092      4.43%     98.07% # Number of insts commited each cycle
system.cpu0.commit.committed_per_cycle::4       569735      0.69%     98.75% # Number of insts commited each cycle
system.cpu0.commit.committed_per_cycle::5       450769      0.54%     99.30% # Number of insts commited each cycle
system.cpu0.commit.committed_per_cycle::6        97906      0.12%     99.42% # Number of insts commited each cycle
system.cpu0.commit.committed_per_cycle::7       111806      0.13%     99.55% # Number of insts commited each cycle
system.cpu0.commit.committed_per_cycle::8       372757      0.45%    100.00% # Number of insts commited each cycle
system.cpu0.commit.committed_per_cycle::overflows            0      0.00%    100.00% # Number of insts commited each cycle
system.cpu0.commit.committed_per_cycle::min_value            0                       # Number of insts commited each cycle
system.cpu0.commit.committed_per_cycle::max_value            8                       # Number of insts commited each cycle
system.cpu0.commit.committed_per_cycle::total     82928392                       # Number of insts commited each cycle
system.cpu0.commit.fp_insts                   5636177                       # Number of committed floating point instructions.
system.cpu0.commit.function_calls             1603955                       # Number of function calls committed.
system.cpu0.commit.int_insts                 50307653                       # Number of committed integer instructions.
system.cpu0.commit.loads                      5139733                       # Number of loads committed
system.cpu0.commit.membars                     131666                       # Number of memory barriers committed
system.cpu0.commit.op_class_0::No_OpClass       131675      0.25%      0.25% # Class of committed instruction
system.cpu0.commit.op_class_0::IntAlu        39930159     75.45%     75.70% # Class of committed instruction
system.cpu0.commit.op_class_0::IntMult           6136      0.01%     75.72% # Class of committed instruction
system.cpu0.commit.op_class_0::IntDiv            8240      0.02%     75.73% # Class of committed instruction
system.cpu0.commit.op_class_0::FloatAdd       1572864      2.97%     78.70% # Class of committed instruction
system.cpu0.commit.op_class_0::FloatCmp       2359302      4.46%     83.16% # Class of committed instruction
system.cpu0.commit.op_class_0::FloatCvt        851984      1.61%     84.77% # Class of committed instruction
system.cpu0.commit.op_class_0::FloatMult       786432      1.49%     86.26% # Class of committed instruction
system.cpu0.commit.op_class_0::FloatMultAcc            0      0.00%     86.26% # Class of committed instruction
system.cpu0.commit.op_class_0::FloatDiv             2      0.00%     86.26% # Class of committed instruction
system.cpu0.commit.op_class_0::FloatMisc            6      0.00%     86.26% # Class of committed instruction
system.cpu0.commit.op_class_0::FloatSqrt            0      0.00%     86.26% # Class of committed instruction
system.cpu0.commit.op_class_0::SimdAdd              0      0.00%     86.26% # Class of committed instruction
system.cpu0.commit.op_class_0::SimdAddAcc            0      0.00%     86.26% # Class of committed instruction
system.cpu0.commit.op_class_0::SimdAlu              0      0.00%     86.26% # Class of committed instruction
system.cpu0.commit.op_class_0::SimdCmp              0      0.00%     86.26% # Class of committed instruction
system.cpu0.commit.op_class_0::SimdCvt              0      0.00%     86.26% # Class of committed instruction
system.cpu0.commit.op_class_0::SimdMisc             0      0.00%     86.26% # Class of committed instruction
system.cpu0.commit.op_class_0::SimdMult             0      0.00%     86.26% # Class of committed instruction
system.cpu0.commit.op_class_0::SimdMultAcc            0      0.00%     86.26% # Class of committed instruction
system.cpu0.commit.op_class_0::SimdShift            0      0.00%     86.26% # Class of committed instruction
system.cpu0.commit.op_class_0::SimdShiftAcc            0      0.00%     86.26% # Class of committed instruction
system.cpu0.commit.op_class_0::SimdDiv              0      0.00%     86.26% # Class of committed instruction
system.cpu0.commit.op_class_0::SimdSqrt             0      0.00%     86.26% # Class of committed instruction
system.cpu0.commit.op_class_0::SimdFloatAdd            0      0.00%     86.26% # Class of committed instruction
system.cpu0.commit.op_class_0::SimdFloatAlu            0      0.00%     86.26% # Class of committed instruction
system.cpu0.commit.op_class_0::SimdFloatCmp            0      0.00%     86.26% # Class of committed instruction
system.cpu0.commit.op_class_0::SimdFloatCvt            0      0.00%     86.26% # Class of committed instruction
system.cpu0.commit.op_class_0::SimdFloatDiv            0      0.00%     86.26% # Class of committed instruction
system.cpu0.commit.op_class_0::SimdFloatMisc            0      0.00%     86.26% # Class of committed instruction
system.cpu0.commit.op_class_0::SimdFloatMult            0      0.00%     86.26% # Class of committed instruction
system.cpu0.commit.op_class_0::SimdFloatMultAcc            0      0.00%     86.26% # Class of committed instruction
system.cpu0.commit.op_class_0::SimdFloatSqrt            0      0.00%     86.26% # Class of committed instruction
system.cpu0.commit.op_class_0::SimdReduceAdd            0      0.00%     86.26% # Class of committed instruction
system.cpu0.commit.op_class_0::SimdReduceAlu            0      0.00%     86.26% # Class of committed instruction
system.cpu0.commit.op_class_0::SimdReduceCmp            0      0.00%     86.26% # Class of committed instruction
system.cpu0.commit.op_class_0::SimdFloatReduceAdd            0      0.00%     86.26% # Class of committed instruction
system.cpu0.commit.op_class_0::SimdFloatReduceCmp            0      0.00%     86.26% # Class of committed instruction
system.cpu0.commit.op_class_0::SimdAes              0      0.00%     86.26% # Class of committed instruction
system.cpu0.commit.op_class_0::SimdAesMix            0      0.00%     86.26% # Class of committed instruction
system.cpu0.commit.op_class_0::SimdSha1Hash            0      0.00%     86.26% # Class of committed instruction
system.cpu0.commit.op_class_0::SimdSha1Hash2            0      0.00%     86.26% # Class of committed instruction
system.cpu0.commit.op_class_0::SimdSha256Hash            0      0.00%     86.26% # Class of committed instruction
system.cpu0.commit.op_class_0::SimdSha256Hash2            0      0.00%     86.26% # Class of committed instruction
system.cpu0.commit.op_class_0::SimdShaSigma2            0      0.00%     86.26% # Class of committed instruction
system.cpu0.commit.op_class_0::SimdShaSigma3            0      0.00%     86.26% # Class of committed instruction
system.cpu0.commit.op_class_0::SimdPredAlu            0      0.00%     86.26% # Class of committed instruction
system.cpu0.commit.op_class_0::MemRead        5139999      9.71%     95.97% # Class of committed instruction
system.cpu0.commit.op_class_0::MemWrite       2066956      3.91%     99.88% # Class of committed instruction
system.cpu0.commit.op_class_0::FloatMemRead        65558      0.12%    100.00% # Class of committed instruction
system.cpu0.commit.op_class_0::FloatMemWrite           29      0.00%    100.00% # Class of committed instruction
system.cpu0.commit.op_class_0::IprAccess            0      0.00%    100.00% # Class of committed instruction
system.cpu0.commit.op_class_0::InstPrefetch            0      0.00%    100.00% # Class of committed instruction
system.cpu0.commit.op_class_0::total         52919342                       # Class of committed instruction
system.cpu0.commit.refs                       7272542                       # Number of memory references committed
system.cpu0.commit.swp_count                        0                       # Number of s/w prefetches committed
system.cpu0.commit.vec_insts                        0                       # Number of committed Vector instructions.
system.cpu0.committedInsts                   52853543                       # Number of Instructions Simulated
system.cpu0.committedOps                     52919342                       # Number of Ops (including micro ops) Simulated
system.cpu0.cpi                              1.644013                       # CPI: Cycles Per Instruction
system.cpu0.cpi_total                        1.644013                       # CPI: Total CPI of All Threads
system.cpu0.decode.BlockedCycles             23104770                       # Number of cycles decode is blocked
system.cpu0.decode.BranchMispred              1301742                       # Number of times decode detected a branch misprediction
system.cpu0.decode.BranchResolved            10001852                       # Number of times decode resolved a branch
system.cpu0.decode.DecodedInsts              80395138                       # Number of instructions handled by decode
system.cpu0.decode.IdleCycles                15662480                       # Number of cycles decode is idle
system.cpu0.decode.RunCycles                 44908044                       # Number of cycles decode is running
system.cpu0.decode.SquashCycles               1517785                       # Number of cycles decode is squashing
system.cpu0.decode.SquashedInsts              2548439                       # Number of squashed instructions handled by decode
system.cpu0.decode.UnblockCycles               924241                       # Number of cycles decode is unblocking
system.cpu0.dtb.accesses                            0                       # DTB accesses
system.cpu0.dtb.hits                                0                       # DTB hits
system.cpu0.dtb.misses                              0                       # DTB misses
system.cpu0.dtb.read_accesses                       0                       # DTB read accesses
system.cpu0.dtb.read_hits                           0                       # DTB read hits
system.cpu0.dtb.read_misses                         0                       # DTB read misses
system.cpu0.dtb.write_accesses                      0                       # DTB write accesses
system.cpu0.dtb.write_hits                          0                       # DTB write hits
system.cpu0.dtb.write_misses                        0                       # DTB write misses
system.cpu0.fetch.Branches                   15463921                       # Number of branches that fetch encountered
system.cpu0.fetch.CacheLines                 11121125                       # Number of cache lines fetched
system.cpu0.fetch.Cycles                     70216319                       # Number of cycles fetch has run and was not squashing or blocked
system.cpu0.fetch.IcacheSquashes               102311                       # Number of outstanding Icache misses that were squashed
system.cpu0.fetch.IcacheWaitRetryStallCycles          146                       # Number of stall cycles due to full MSHR
system.cpu0.fetch.Insts                      90320394                       # Number of instructions fetch has processed
system.cpu0.fetch.MiscStallCycles                  96                       # Number of cycles fetch has spent waiting on interrupts, or bad addresses, or out of MSHRs
system.cpu0.fetch.PendingTrapStallCycles          121                       # Number of stall cycles due to pending traps
system.cpu0.fetch.SquashCycles                5638578                       # Number of cycles fetch has spent squashing
system.cpu0.fetch.branchRate                 0.177967                       # Number of branch fetches per cycle
system.cpu0.fetch.icacheStallCycles          13081349                       # Number of cycles fetch is stalled on an Icache miss
system.cpu0.fetch.predictedBranches          12221082                       # Number of branches that fetch has predicted taken
system.cpu0.fetch.rate                       1.039457                       # Number of inst fetches per cycle
system.cpu0.fetch.rateDist::samples          86117320                       # Number of instructions fetched each cycle (Total)
system.cpu0.fetch.rateDist::mean             1.049573                       # Number of instructions fetched each cycle (Total)
system.cpu0.fetch.rateDist::stdev            1.302759                       # Number of instructions fetched each cycle (Total)
system.cpu0.fetch.rateDist::underflows              0      0.00%      0.00% # Number of instructions fetched each cycle (Total)
system.cpu0.fetch.rateDist::0                35632632     41.38%     41.38% # Number of instructions fetched each cycle (Total)
system.cpu0.fetch.rateDist::1                29757869     34.56%     75.93% # Number of instructions fetched each cycle (Total)
system.cpu0.fetch.rateDist::2                11251008     13.06%     89.00% # Number of instructions fetched each cycle (Total)
system.cpu0.fetch.rateDist::3                 4601218      5.34%     94.34% # Number of instructions fetched each cycle (Total)
system.cpu0.fetch.rateDist::4                 1759182      2.04%     96.38% # Number of instructions fetched each cycle (Total)
system.cpu0.fetch.rateDist::5                 1412826      1.64%     98.02% # Number of instructions fetched each cycle (Total)
system.cpu0.fetch.rateDist::6                 1698901      1.97%    100.00% # Number of instructions fetched each cycle (Total)
system.cpu0.fetch.rateDist::7                     855      0.00%    100.00% # Number of instructions fetched each cycle (Total)
system.cpu0.fetch.rateDist::8                    2829      0.00%    100.00% # Number of instructions fetched each cycle (Total)
system.cpu0.fetch.rateDist::overflows               0      0.00%    100.00% # Number of instructions fetched each cycle (Total)
system.cpu0.fetch.rateDist::min_value               0                       # Number of instructions fetched each cycle (Total)
system.cpu0.fetch.rateDist::max_value               8                       # Number of instructions fetched each cycle (Total)
system.cpu0.fetch.rateDist::total            86117320                       # Number of instructions fetched each cycle (Total)
system.cpu0.fp_regfile_reads                 11369800                       # number of floating regfile reads
system.cpu0.fp_regfile_writes                 3526663                       # number of floating regfile writes
system.cpu0.idleCycles                         774581                       # Total number of cycles that the CPU has spent unscheduled due to idling
system.cpu0.iew.branchMispredicts             1657362                       # Number of branch mispredicts detected at execute
system.cpu0.iew.exec_branches                11044296                       # Number of branches executed
system.cpu0.iew.exec_nop                            0                       # number of nop insts executed
system.cpu0.iew.exec_rate                    0.797188                       # Inst execution rate
system.cpu0.iew.exec_refs                    10460924                       # number of memory reference insts executed
system.cpu0.iew.exec_stores                   2692422                       # Number of stores executed
system.cpu0.iew.exec_swp                            0                       # number of swp insts executed
system.cpu0.iew.iewBlockCycles               20721133                       # Number of cycles IEW is blocking
system.cpu0.iew.iewDispLoadInsts              7971399                       # Number of dispatched load instructions
system.cpu0.iew.iewDispNonSpecInsts             66483                       # Number of dispatched non-speculative instructions
system.cpu0.iew.iewDispSquashedInsts           437739                       # Number of squashed instructions skipped by dispatch
system.cpu0.iew.iewDispStoreInsts             3256539                       # Number of dispatched store instructions
system.cpu0.iew.iewDispatchedInsts           74088813                       # Number of instructions dispatched to IQ
system.cpu0.iew.iewExecLoadInsts              7768502                       # Number of load instructions executed
system.cpu0.iew.iewExecSquashedInsts          1495167                       # Number of squashed instructions skipped in execute
system.cpu0.iew.iewExecutedInsts             69269210                       # Number of executed instructions
system.cpu0.iew.iewIQFullEvents                121232                       # Number of times the IQ has become full, causing a stall
system.cpu0.iew.iewIdleCycles                       0                       # Number of cycles IEW is idle
system.cpu0.iew.iewLSQFullEvents                94598                       # Number of times the LSQ has become full, causing a stall
system.cpu0.iew.iewSquashCycles               1517785                       # Number of cycles IEW is squashing
system.cpu0.iew.iewUnblockCycles               354970                       # Number of cycles IEW is unblocking
system.cpu0.iew.lsq.thread0.blockedLoads            0                       # Number of blocked loads due to partial load-store forwarding
system.cpu0.iew.lsq.thread0.cacheBlocked         5988                       # Number of times an access to memory failed due to the cache being blocked
system.cpu0.iew.lsq.thread0.forwLoads          210748                       # Number of loads that had data forwarded from stores
system.cpu0.iew.lsq.thread0.ignoredResponses         1732                       # Number of memory responses ignored because the instruction is squashed
system.cpu0.iew.lsq.thread0.invAddrLoads            0                       # Number of loads ignored due to an invalid address
system.cpu0.iew.lsq.thread0.invAddrSwpfs            0                       # Number of software prefetches ignored due to an invalid address
system.cpu0.iew.lsq.thread0.memOrderViolation          358                       # Number of memory ordering violations
system.cpu0.iew.lsq.thread0.rescheduledLoads          109                       # Number of loads that were rescheduled
system.cpu0.iew.lsq.thread0.squashedLoads      2831666                       # Number of loads squashed
system.cpu0.iew.lsq.thread0.squashedStores      1123730                       # Number of stores squashed
system.cpu0.iew.memOrderViolationEvents           358                       # Number of memory order violations
system.cpu0.iew.predictedNotTakenIncorrect        72410                       # Number of branches that were predicted not taken incorrectly
system.cpu0.iew.predictedTakenIncorrect       1584952                       # Number of branches that were predicted taken incorrectly
system.cpu0.iew.wb_consumers                 52990785                       # num instructions consuming a value
system.cpu0.iew.wb_count                     68664688                       # cumulative count of insts written-back
system.cpu0.iew.wb_fanout                    0.822537                       # average fanout of values written-back
system.cpu0.iew.wb_producers                 43586894                       # num instructions producing a value
system.cpu0.iew.wb_rate                      0.790231                       # insts written-back per cycle
system.cpu0.iew.wb_sent                      68726686                       # cumulative count of insts sent to commit
system.cpu0.int_regfile_reads                79719905                       # number of integer regfile reads
system.cpu0.int_regfile_writes               52412436                       # number of integer regfile writes
system.cpu0.ipc                              0.608268                       # IPC: Instructions Per Cycle
system.cpu0.ipc_total                        0.608268                       # IPC: Total IPC of All Threads
system.cpu0.iq.FU_type_0::No_OpClass           131836      0.19%      0.19% # Type of FU issued
system.cpu0.iq.FU_type_0::IntAlu             53337022     75.37%     75.56% # Type of FU issued
system.cpu0.iq.FU_type_0::IntMult                6166      0.01%     75.57% # Type of FU issued
system.cpu0.iq.FU_type_0::IntDiv                 8249      0.01%     75.58% # Type of FU issued
system.cpu0.iq.FU_type_0::FloatAdd            1699388      2.40%     77.98% # Type of FU issued
system.cpu0.iq.FU_type_0::FloatCmp            3141332      4.44%     82.42% # Type of FU issued
system.cpu0.iq.FU_type_0::FloatCvt             975634      1.38%     83.80% # Type of FU issued
system.cpu0.iq.FU_type_0::FloatMult            847879      1.20%     85.00% # Type of FU issued
system.cpu0.iq.FU_type_0::FloatMultAcc              0      0.00%     85.00% # Type of FU issued
system.cpu0.iq.FU_type_0::FloatDiv                  2      0.00%     85.00% # Type of FU issued
system.cpu0.iq.FU_type_0::FloatMisc                 6      0.00%     85.00% # Type of FU issued
system.cpu0.iq.FU_type_0::FloatSqrt                 0      0.00%     85.00% # Type of FU issued
system.cpu0.iq.FU_type_0::SimdAdd                   0      0.00%     85.00% # Type of FU issued
system.cpu0.iq.FU_type_0::SimdAddAcc                0      0.00%     85.00% # Type of FU issued
system.cpu0.iq.FU_type_0::SimdAlu                   0      0.00%     85.00% # Type of FU issued
system.cpu0.iq.FU_type_0::SimdCmp                   0      0.00%     85.00% # Type of FU issued
system.cpu0.iq.FU_type_0::SimdCvt                   0      0.00%     85.00% # Type of FU issued
system.cpu0.iq.FU_type_0::SimdMisc                  0      0.00%     85.00% # Type of FU issued
system.cpu0.iq.FU_type_0::SimdMult                  0      0.00%     85.00% # Type of FU issued
system.cpu0.iq.FU_type_0::SimdMultAcc               0      0.00%     85.00% # Type of FU issued
system.cpu0.iq.FU_type_0::SimdShift                 0      0.00%     85.00% # Type of FU issued
system.cpu0.iq.FU_type_0::SimdShiftAcc              0      0.00%     85.00% # Type of FU issued
system.cpu0.iq.FU_type_0::SimdDiv                   0      0.00%     85.00% # Type of FU issued
system.cpu0.iq.FU_type_0::SimdSqrt                  0      0.00%     85.00% # Type of FU issued
system.cpu0.iq.FU_type_0::SimdFloatAdd              0      0.00%     85.00% # Type of FU issued
system.cpu0.iq.FU_type_0::SimdFloatAlu              0      0.00%     85.00% # Type of FU issued
system.cpu0.iq.FU_type_0::SimdFloatCmp              0      0.00%     85.00% # Type of FU issued
system.cpu0.iq.FU_type_0::SimdFloatCvt              0      0.00%     85.00% # Type of FU issued
system.cpu0.iq.FU_type_0::SimdFloatDiv              0      0.00%     85.00% # Type of FU issued
system.cpu0.iq.FU_type_0::SimdFloatMisc             0      0.00%     85.00% # Type of FU issued
system.cpu0.iq.FU_type_0::SimdFloatMult             0      0.00%     85.00% # Type of FU issued
system.cpu0.iq.FU_type_0::SimdFloatMultAcc            0      0.00%     85.00% # Type of FU issued
system.cpu0.iq.FU_type_0::SimdFloatSqrt             0      0.00%     85.00% # Type of FU issued
system.cpu0.iq.FU_type_0::SimdReduceAdd             0      0.00%     85.00% # Type of FU issued
system.cpu0.iq.FU_type_0::SimdReduceAlu             0      0.00%     85.00% # Type of FU issued
system.cpu0.iq.FU_type_0::SimdReduceCmp             0      0.00%     85.00% # Type of FU issued
system.cpu0.iq.FU_type_0::SimdFloatReduceAdd            0      0.00%     85.00% # Type of FU issued
system.cpu0.iq.FU_type_0::SimdFloatReduceCmp            0      0.00%     85.00% # Type of FU issued
system.cpu0.iq.FU_type_0::SimdAes                   0      0.00%     85.00% # Type of FU issued
system.cpu0.iq.FU_type_0::SimdAesMix                0      0.00%     85.00% # Type of FU issued
system.cpu0.iq.FU_type_0::SimdSha1Hash              0      0.00%     85.00% # Type of FU issued
system.cpu0.iq.FU_type_0::SimdSha1Hash2             0      0.00%     85.00% # Type of FU issued
system.cpu0.iq.FU_type_0::SimdSha256Hash            0      0.00%     85.00% # Type of FU issued
system.cpu0.iq.FU_type_0::SimdSha256Hash2            0      0.00%     85.00% # Type of FU issued
system.cpu0.iq.FU_type_0::SimdShaSigma2             0      0.00%     85.00% # Type of FU issued
system.cpu0.iq.FU_type_0::SimdShaSigma3             0      0.00%     85.00% # Type of FU issued
system.cpu0.iq.FU_type_0::SimdPredAlu               0      0.00%     85.00% # Type of FU issued
system.cpu0.iq.FU_type_0::MemRead             7860870     11.11%     96.11% # Type of FU issued
system.cpu0.iq.FU_type_0::MemWrite            2690128      3.80%     99.91% # Type of FU issued
system.cpu0.iq.FU_type_0::FloatMemRead          65837      0.09%    100.00% # Type of FU issued
system.cpu0.iq.FU_type_0::FloatMemWrite            29      0.00%    100.00% # Type of FU issued
system.cpu0.iq.FU_type_0::IprAccess                 0      0.00%    100.00% # Type of FU issued
system.cpu0.iq.FU_type_0::InstPrefetch              0      0.00%    100.00% # Type of FU issued
system.cpu0.iq.FU_type_0::total              70764378                       # Type of FU issued
system.cpu0.iq.fp_alu_accesses                6730179                       # Number of floating point alu accesses
system.cpu0.iq.fp_inst_queue_reads           13460286                       # Number of floating instruction queue reads
system.cpu0.iq.fp_inst_queue_wakeup_accesses      6667943                       # Number of floating instruction queue wakeup accesses
system.cpu0.iq.fp_inst_queue_writes           7891347                       # Number of floating instruction queue writes
system.cpu0.iq.fu_busy_cnt                     296888                       # FU busy when requested
system.cpu0.iq.fu_busy_rate                  0.004195                       # FU busy rate (busy events/executed inst)
system.cpu0.iq.fu_full::No_OpClass                  0      0.00%      0.00% # attempts to use FU when none available
system.cpu0.iq.fu_full::IntAlu                 254692     85.79%     85.79% # attempts to use FU when none available
system.cpu0.iq.fu_full::IntMult                  6048      2.04%     87.82% # attempts to use FU when none available
system.cpu0.iq.fu_full::IntDiv                  11041      3.72%     91.54% # attempts to use FU when none available
system.cpu0.iq.fu_full::FloatAdd                    0      0.00%     91.54% # attempts to use FU when none available
system.cpu0.iq.fu_full::FloatCmp                    3      0.00%     91.54% # attempts to use FU when none available
system.cpu0.iq.fu_full::FloatCvt                   63      0.02%     91.57% # attempts to use FU when none available
system.cpu0.iq.fu_full::FloatMult                   0      0.00%     91.57% # attempts to use FU when none available
system.cpu0.iq.fu_full::FloatMultAcc                0      0.00%     91.57% # attempts to use FU when none available
system.cpu0.iq.fu_full::FloatDiv                    0      0.00%     91.57% # attempts to use FU when none available
system.cpu0.iq.fu_full::FloatMisc                   0      0.00%     91.57% # attempts to use FU when none available
system.cpu0.iq.fu_full::FloatSqrt                   0      0.00%     91.57% # attempts to use FU when none available
system.cpu0.iq.fu_full::SimdAdd                     0      0.00%     91.57% # attempts to use FU when none available
system.cpu0.iq.fu_full::SimdAddAcc                  0      0.00%     91.57% # attempts to use FU when none available
system.cpu0.iq.fu_full::SimdAlu                     0      0.00%     91.57% # attempts to use FU when none available
system.cpu0.iq.fu_full::SimdCmp                     0      0.00%     91.57% # attempts to use FU when none available
system.cpu0.iq.fu_full::SimdCvt                     0      0.00%     91.57% # attempts to use FU when none available
system.cpu0.iq.fu_full::SimdMisc                    0      0.00%     91.57% # attempts to use FU when none available
system.cpu0.iq.fu_full::SimdMult                    0      0.00%     91.57% # attempts to use FU when none available
system.cpu0.iq.fu_full::SimdMultAcc                 0      0.00%     91.57% # attempts to use FU when none available
system.cpu0.iq.fu_full::SimdShift                   0      0.00%     91.57% # attempts to use FU when none available
system.cpu0.iq.fu_full::SimdShiftAcc                0      0.00%     91.57% # attempts to use FU when none available
system.cpu0.iq.fu_full::SimdDiv                     0      0.00%     91.57% # attempts to use FU when none available
system.cpu0.iq.fu_full::SimdSqrt                    0      0.00%     91.57% # attempts to use FU when none available
system.cpu0.iq.fu_full::SimdFloatAdd                0      0.00%     91.57% # attempts to use FU when none available
system.cpu0.iq.fu_full::SimdFloatAlu                0      0.00%     91.57% # attempts to use FU when none available
system.cpu0.iq.fu_full::SimdFloatCmp                0      0.00%     91.57% # attempts to use FU when none available
system.cpu0.iq.fu_full::SimdFloatCvt                0      0.00%     91.57% # attempts to use FU when none available
system.cpu0.iq.fu_full::SimdFloatDiv                0      0.00%     91.57% # attempts to use FU when none available
system.cpu0.iq.fu_full::SimdFloatMisc               0      0.00%     91.57% # attempts to use FU when none available
system.cpu0.iq.fu_full::SimdFloatMult               0      0.00%     91.57% # attempts to use FU when none available
system.cpu0.iq.fu_full::SimdFloatMultAcc            0      0.00%     91.57% # attempts to use FU when none available
system.cpu0.iq.fu_full::SimdFloatSqrt               0      0.00%     91.57% # attempts to use FU when none available
system.cpu0.iq.fu_full::SimdReduceAdd               0      0.00%     91.57% # attempts to use FU when none available
system.cpu0.iq.fu_full::SimdReduceAlu               0      0.00%     91.57% # attempts to use FU when none available
system.cpu0.iq.fu_full::SimdReduceCmp               0      0.00%     91.57% # attempts to use FU when none available
system.cpu0.iq.fu_full::SimdFloatReduceAdd            0      0.00%     91.57% # attempts to use FU when none available
system.cpu0.iq.fu_full::SimdFloatReduceCmp            0      0.00%     91.57% # attempts to use FU when none available
system.cpu0.iq.fu_full::SimdAes                     0      0.00%     91.57% # attempts to use FU when none available
system.cpu0.iq.fu_full::SimdAesMix                  0      0.00%     91.57% # attempts to use FU when none available
system.cpu0.iq.fu_full::SimdSha1Hash                0      0.00%     91.57% # attempts to use FU when none available
system.cpu0.iq.fu_full::SimdSha1Hash2               0      0.00%     91.57% # attempts to use FU when none available
system.cpu0.iq.fu_full::SimdSha256Hash              0      0.00%     91.57% # attempts to use FU when none available
system.cpu0.iq.fu_full::SimdSha256Hash2             0      0.00%     91.57% # attempts to use FU when none available
system.cpu0.iq.fu_full::SimdShaSigma2               0      0.00%     91.57% # attempts to use FU when none available
system.cpu0.iq.fu_full::SimdShaSigma3               0      0.00%     91.57% # attempts to use FU when none available
system.cpu0.iq.fu_full::SimdPredAlu                 0      0.00%     91.57% # attempts to use FU when none available
system.cpu0.iq.fu_full::MemRead                 22239      7.49%     99.06% # attempts to use FU when none available
system.cpu0.iq.fu_full::MemWrite                 2796      0.94%    100.00% # attempts to use FU when none available
system.cpu0.iq.fu_full::FloatMemRead                2      0.00%    100.00% # attempts to use FU when none available
system.cpu0.iq.fu_full::FloatMemWrite               4      0.00%    100.00% # attempts to use FU when none available
system.cpu0.iq.fu_full::IprAccess                   0      0.00%    100.00% # attempts to use FU when none available
system.cpu0.iq.fu_full::InstPrefetch                0      0.00%    100.00% # attempts to use FU when none available
system.cpu0.iq.int_alu_accesses              64199251                       # Number of integer alu accesses
system.cpu0.iq.int_inst_queue_reads         214655064                       # Number of integer instruction queue reads
system.cpu0.iq.int_inst_queue_wakeup_accesses     61996745                       # Number of integer instruction queue wakeup accesses
system.cpu0.iq.int_inst_queue_writes         87367170                       # Number of integer instruction queue writes
system.cpu0.iq.iqInstsAdded                  73890556                       # Number of instructions added to the IQ (excludes non-spec)
system.cpu0.iq.iqInstsIssued                 70764378                       # Number of instructions issued
system.cpu0.iq.iqNonSpecInstsAdded             198257                       # Number of non-speculative instructions added to the IQ
system.cpu0.iq.iqSquashedInstsExamined       21169467                       # Number of squashed instructions iterated over during squash; mainly for profiling
system.cpu0.iq.iqSquashedInstsIssued           172387                       # Number of squashed instructions issued
system.cpu0.iq.iqSquashedNonSpecRemoved           300                       # Number of squashed non-spec instructions that were removed
system.cpu0.iq.iqSquashedOperandsExamined      5983143                       # Number of squashed operands that are examined and possibly removed from graph
system.cpu0.iq.issued_per_cycle::samples     86117320                       # Number of insts issued each cycle
system.cpu0.iq.issued_per_cycle::mean        0.821721                       # Number of insts issued each cycle
system.cpu0.iq.issued_per_cycle::stdev       1.144826                       # Number of insts issued each cycle
system.cpu0.iq.issued_per_cycle::underflows            0      0.00%      0.00% # Number of insts issued each cycle
system.cpu0.iq.issued_per_cycle::0           44676716     51.88%     51.88% # Number of insts issued each cycle
system.cpu0.iq.issued_per_cycle::1           23733280     27.56%     79.44% # Number of insts issued each cycle
system.cpu0.iq.issued_per_cycle::2           11818092     13.72%     93.16% # Number of insts issued each cycle
system.cpu0.iq.issued_per_cycle::3            2573930      2.99%     96.15% # Number of insts issued each cycle
system.cpu0.iq.issued_per_cycle::4            1632306      1.90%     98.05% # Number of insts issued each cycle
system.cpu0.iq.issued_per_cycle::5            1212681      1.41%     99.45% # Number of insts issued each cycle
system.cpu0.iq.issued_per_cycle::6             270708      0.31%     99.77% # Number of insts issued each cycle
system.cpu0.iq.issued_per_cycle::7             140609      0.16%     99.93% # Number of insts issued each cycle
system.cpu0.iq.issued_per_cycle::8              58998      0.07%    100.00% # Number of insts issued each cycle
system.cpu0.iq.issued_per_cycle::overflows            0      0.00%    100.00% # Number of insts issued each cycle
system.cpu0.iq.issued_per_cycle::min_value            0                       # Number of insts issued each cycle
system.cpu0.iq.issued_per_cycle::max_value            8                       # Number of insts issued each cycle
system.cpu0.iq.issued_per_cycle::total       86117320                       # Number of insts issued each cycle
system.cpu0.iq.rate                          0.814396                       # Inst issue rate
system.cpu0.iq.vec_alu_accesses                     0                       # Number of vector alu accesses
system.cpu0.iq.vec_inst_queue_reads                 0                       # Number of vector instruction queue reads
system.cpu0.iq.vec_inst_queue_wakeup_accesses            0                       # Number of vector instruction queue wakeup accesses
system.cpu0.iq.vec_inst_queue_writes                0                       # Number of vector instruction queue writes
system.cpu0.itb.accesses                            0                       # DTB accesses
system.cpu0.itb.hits                                0                       # DTB hits
system.cpu0.itb.misses                              0                       # DTB misses
system.cpu0.itb.read_accesses                       0                       # DTB read accesses
system.cpu0.itb.read_hits                           0                       # DTB read hits
system.cpu0.itb.read_misses                         0                       # DTB read misses
system.cpu0.itb.write_accesses                      0                       # DTB write accesses
system.cpu0.itb.write_hits                          0                       # DTB write hits
system.cpu0.itb.write_misses                        0                       # DTB write misses
system.cpu0.memDep0.conflictingLoads           505678                       # Number of conflicting loads.
system.cpu0.memDep0.conflictingStores          158904                       # Number of conflicting stores.
system.cpu0.memDep0.insertedLoads             7971399                       # Number of loads inserted to the mem dependence unit.
system.cpu0.memDep0.insertedStores            3256539                       # Number of stores inserted to the mem dependence unit.
system.cpu0.misc_regfile_reads                9997467                       # number of misc regfile reads
system.cpu0.misc_regfile_writes               5570590                       # number of misc regfile writes
system.cpu0.numCycles                        86891901                       # number of cpu cycles simulated
system.cpu0.numWorkItemsCompleted                   0                       # number of work items this cpu completed
system.cpu0.numWorkItemsStarted                     0                       # number of work items this cpu started
system.cpu0.quiesceCycles                     1223405                       # Total number of cycles that CPU has spent quiesced or waiting for an interrupt
system.cpu0.rename.BlockCycles               22133760                       # Number of cycles rename is blocking
system.cpu0.rename.CommittedMaps             43416077                       # Number of HB maps that are committed
system.cpu0.rename.IQFullEvents                683419                       # Number of times rename has blocked due to IQ full
system.cpu0.rename.IdleCycles                18398537                       # Number of cycles rename is idle
system.cpu0.rename.LQFullEvents                 99693                       # Number of times rename has blocked due to LQ full
system.cpu0.rename.ROBFullEvents                 7768                       # Number of times rename has blocked due to ROB full
system.cpu0.rename.RenameLookups            102308883                       # Number of register rename lookups that rename has made
system.cpu0.rename.RenamedInsts              77820385                       # Number of instructions processed by rename
system.cpu0.rename.RenamedOperands           62896733                       # Number of destination operands rename has renamed
system.cpu0.rename.RunCycles                 42946420                       # Number of cycles rename is running
system.cpu0.rename.SQFullEvents                131678                       # Number of times rename has blocked due to SQ full
system.cpu0.rename.SquashCycles               1517785                       # Number of cycles rename is squashing
system.cpu0.rename.UnblockCycles              1097739                       # Number of cycles rename is unblocking
system.cpu0.rename.UndoneMaps                19480651                       # Number of HB maps that are undone due to squashing
system.cpu0.rename.fp_rename_lookups         11797576                       # Number of floating rename lookups
system.cpu0.rename.int_rename_lookups        90511307                       # Number of integer rename lookups
system.cpu0.rename.serializeStallCycles         23079                       # count of cycles rename stalled for serializing inst
system.cpu0.rename.serializingInsts               565                       # count of serializing insts renamed
system.cpu0.rename.skidInsts                  1535191                       # count of insts added to the skid buffer
system.cpu0.rename.tempSerializingInsts           562                       # count of temporary serializing insts renamed
system.cpu0.rob.rob_reads                   156643195                       # The number of ROB reads
system.cpu0.rob.rob_writes                  151367810                       # The number of ROB writes
system.cpu0.timesIdled                          10528                       # Number of times that the entire CPU went into an idle state and unscheduled itself
system.cpu0.workload.numSyscalls                  141                       # Number of system calls
system.cpu1.branchPred.BTBCorrect                   0                       # Number of correct BTB predictions (this stat may not work properly.
system.cpu1.branchPred.BTBHitPct            95.141941                       # BTB Hit Percentage
system.cpu1.branchPred.BTBHits                1027728                       # Number of BTB hits
system.cpu1.branchPred.BTBLookups             1080205                       # Number of BTB lookups
system.cpu1.branchPred.RASInCorrect                 0                       # Number of incorrect RAS predictions.
system.cpu1.branchPred.condIncorrect           181141                       # Number of conditional branches incorrect
system.cpu1.branchPred.condPredicted          1339551                       # Number of conditional branches predicted
system.cpu1.branchPred.indirectHits             10670                       # Number of indirect target hits.
system.cpu1.branchPred.indirectLookups          13405                       # Number of indirect predictor lookups.
system.cpu1.branchPred.indirectMisses            2735                       # Number of indirect misses.
system.cpu1.branchPred.lookups                1632969                       # Number of BP lookups
system.cpu1.branchPred.usedRAS                      0                       # Number of times the RAS was used to get a target.
system.cpu1.branchPredindirectMispredicted         1804                       # Number of mispredicted indirect branches.
system.cpu1.commit.amos                         65656                       # Number of atomic instructions committed
system.cpu1.commit.branchMispredicts           174667                       # The number of times a branch was mispredicted
system.cpu1.commit.branches                    919859                       # Number of branches committed
system.cpu1.commit.bw_lim_events                22595                       # number cycles where commit BW limit reached
system.cpu1.commit.commitNonSpecStalls         197208                       # The number of times commit has been forced to stall to communicate backwards
system.cpu1.commit.commitSquashedInsts        1543884                       # The number of squashed insts skipped by commit
system.cpu1.commit.committedInsts             3787465                       # Number of instructions committed
system.cpu1.commit.committedOps               3853183                       # Number of ops (including micro ops) committed
system.cpu1.commit.committed_per_cycle::samples     22822489                       # Number of insts commited each cycle
system.cpu1.commit.committed_per_cycle::mean     0.168833                       # Number of insts commited each cycle
system.cpu1.commit.committed_per_cycle::stdev     0.658170                       # Number of insts commited each cycle
system.cpu1.commit.committed_per_cycle::underflows            0      0.00%      0.00% # Number of insts commited each cycle
system.cpu1.commit.committed_per_cycle::0     20810676     91.18%     91.18% # Number of insts commited each cycle
system.cpu1.commit.committed_per_cycle::1      1056630      4.63%     95.81% # Number of insts commited each cycle
system.cpu1.commit.committed_per_cycle::2       391180      1.71%     97.53% # Number of insts commited each cycle
system.cpu1.commit.committed_per_cycle::3       382804      1.68%     99.21% # Number of insts commited each cycle
system.cpu1.commit.committed_per_cycle::4       120567      0.53%     99.73% # Number of insts commited each cycle
system.cpu1.commit.committed_per_cycle::5        28491      0.12%     99.86% # Number of insts commited each cycle
system.cpu1.commit.committed_per_cycle::6         6524      0.03%     99.89% # Number of insts commited each cycle
system.cpu1.commit.committed_per_cycle::7         3022      0.01%     99.90% # Number of insts commited each cycle
system.cpu1.commit.committed_per_cycle::8        22595      0.10%    100.00% # Number of insts commited each cycle
system.cpu1.commit.committed_per_cycle::overflows            0      0.00%    100.00% # Number of insts commited each cycle
system.cpu1.commit.committed_per_cycle::min_value            0                       # Number of insts commited each cycle
system.cpu1.commit.committed_per_cycle::max_value            8                       # Number of insts commited each cycle
system.cpu1.commit.committed_per_cycle::total     22822489                       # Number of insts commited each cycle
system.cpu1.commit.fp_insts                        24                       # Number of committed floating point instructions.
system.cpu1.commit.function_calls               17156                       # Number of function calls committed.
system.cpu1.commit.int_insts                  3578663                       # Number of committed integer instructions.
system.cpu1.commit.loads                       984610                       # Number of loads committed
system.cpu1.commit.membars                     131330                       # Number of memory barriers committed
system.cpu1.commit.op_class_0::No_OpClass       131330      3.41%      3.41% # Class of committed instruction
system.cpu1.commit.op_class_0::IntAlu         2316853     60.13%     63.54% # Class of committed instruction
system.cpu1.commit.op_class_0::IntMult            638      0.02%     63.55% # Class of committed instruction
system.cpu1.commit.op_class_0::IntDiv              30      0.00%     63.55% # Class of committed instruction
system.cpu1.commit.op_class_0::FloatAdd             0      0.00%     63.55% # Class of committed instruction
system.cpu1.commit.op_class_0::FloatCmp             0      0.00%     63.55% # Class of committed instruction
system.cpu1.commit.op_class_0::FloatCvt             0      0.00%     63.55% # Class of committed instruction
system.cpu1.commit.op_class_0::FloatMult            0      0.00%     63.55% # Class of committed instruction
system.cpu1.commit.op_class_0::FloatMultAcc            0      0.00%     63.55% # Class of committed instruction
system.cpu1.commit.op_class_0::FloatDiv             0      0.00%     63.55% # Class of committed instruction
system.cpu1.commit.op_class_0::FloatMisc            0      0.00%     63.55% # Class of committed instruction
system.cpu1.commit.op_class_0::FloatSqrt            0      0.00%     63.55% # Class of committed instruction
system.cpu1.commit.op_class_0::SimdAdd              0      0.00%     63.55% # Class of committed instruction
system.cpu1.commit.op_class_0::SimdAddAcc            0      0.00%     63.55% # Class of committed instruction
system.cpu1.commit.op_class_0::SimdAlu              0      0.00%     63.55% # Class of committed instruction
system.cpu1.commit.op_class_0::SimdCmp              0      0.00%     63.55% # Class of committed instruction
system.cpu1.commit.op_class_0::SimdCvt              0      0.00%     63.55% # Class of committed instruction
system.cpu1.commit.op_class_0::SimdMisc             0      0.00%     63.55% # Class of committed instruction
system.cpu1.commit.op_class_0::SimdMult             0      0.00%     63.55% # Class of committed instruction
system.cpu1.commit.op_class_0::SimdMultAcc            0      0.00%     63.55% # Class of committed instruction
system.cpu1.commit.op_class_0::SimdShift            0      0.00%     63.55% # Class of committed instruction
system.cpu1.commit.op_class_0::SimdShiftAcc            0      0.00%     63.55% # Class of committed instruction
system.cpu1.commit.op_class_0::SimdDiv              0      0.00%     63.55% # Class of committed instruction
system.cpu1.commit.op_class_0::SimdSqrt             0      0.00%     63.55% # Class of committed instruction
system.cpu1.commit.op_class_0::SimdFloatAdd            0      0.00%     63.55% # Class of committed instruction
system.cpu1.commit.op_class_0::SimdFloatAlu            0      0.00%     63.55% # Class of committed instruction
system.cpu1.commit.op_class_0::SimdFloatCmp            0      0.00%     63.55% # Class of committed instruction
system.cpu1.commit.op_class_0::SimdFloatCvt            0      0.00%     63.55% # Class of committed instruction
system.cpu1.commit.op_class_0::SimdFloatDiv            0      0.00%     63.55% # Class of committed instruction
system.cpu1.commit.op_class_0::SimdFloatMisc            0      0.00%     63.55% # Class of committed instruction
system.cpu1.commit.op_class_0::SimdFloatMult            0      0.00%     63.55% # Class of committed instruction
system.cpu1.commit.op_class_0::SimdFloatMultAcc            0      0.00%     63.55% # Class of committed instruction
system.cpu1.commit.op_class_0::SimdFloatSqrt            0      0.00%     63.55% # Class of committed instruction
system.cpu1.commit.op_class_0::SimdReduceAdd            0      0.00%     63.55% # Class of committed instruction
system.cpu1.commit.op_class_0::SimdReduceAlu            0      0.00%     63.55% # Class of committed instruction
system.cpu1.commit.op_class_0::SimdReduceCmp            0      0.00%     63.55% # Class of committed instruction
system.cpu1.commit.op_class_0::SimdFloatReduceAdd            0      0.00%     63.55% # Class of committed instruction
system.cpu1.commit.op_class_0::SimdFloatReduceCmp            0      0.00%     63.55% # Class of committed instruction
system.cpu1.commit.op_class_0::SimdAes              0      0.00%     63.55% # Class of committed instruction
system.cpu1.commit.op_class_0::SimdAesMix            0      0.00%     63.55% # Class of committed instruction
system.cpu1.commit.op_class_0::SimdSha1Hash            0      0.00%     63.55% # Class of committed instruction
system.cpu1.commit.op_class_0::SimdSha1Hash2            0      0.00%     63.55% # Class of committed instruction
system.cpu1.commit.op_class_0::SimdSha256Hash            0      0.00%     63.55% # Class of committed instruction
system.cpu1.commit.op_class_0::SimdSha256Hash2            0      0.00%     63.55% # Class of committed instruction
system.cpu1.commit.op_class_0::SimdShaSigma2            0      0.00%     63.55% # Class of committed instruction
system.cpu1.commit.op_class_0::SimdShaSigma3            0      0.00%     63.55% # Class of committed instruction
system.cpu1.commit.op_class_0::SimdPredAlu            0      0.00%     63.55% # Class of committed instruction
system.cpu1.commit.op_class_0::MemRead        1050260     27.26%     90.81% # Class of committed instruction
system.cpu1.commit.op_class_0::MemWrite        354048      9.19%    100.00% # Class of committed instruction
system.cpu1.commit.op_class_0::FloatMemRead            6      0.00%    100.00% # Class of committed instruction
system.cpu1.commit.op_class_0::FloatMemWrite           18      0.00%    100.00% # Class of committed instruction
system.cpu1.commit.op_class_0::IprAccess            0      0.00%    100.00% # Class of committed instruction
system.cpu1.commit.op_class_0::InstPrefetch            0      0.00%    100.00% # Class of committed instruction
system.cpu1.commit.op_class_0::total          3853183                       # Class of committed instruction
system.cpu1.commit.refs                       1404332                       # Number of memory references committed
system.cpu1.commit.swp_count                        0                       # Number of s/w prefetches committed
system.cpu1.commit.vec_insts                        0                       # Number of committed Vector instructions.
system.cpu1.committedInsts                    3787465                       # Number of Instructions Simulated
system.cpu1.committedOps                      3853183                       # Number of Ops (including micro ops) Simulated
system.cpu1.cpi                              6.122923                       # CPI: Cycles Per Instruction
system.cpu1.cpi_total                        6.122923                       # CPI: Total CPI of All Threads
system.cpu1.decode.BlockedCycles             18500561                       # Number of cycles decode is blocked
system.cpu1.decode.BranchMispred                 6604                       # Number of times decode detected a branch misprediction
system.cpu1.decode.BranchResolved              946374                       # Number of times decode resolved a branch
system.cpu1.decode.DecodedInsts               6082665                       # Number of instructions handled by decode
system.cpu1.decode.IdleCycles                  987681                       # Number of cycles decode is idle
system.cpu1.decode.RunCycles                  3247935                       # Number of cycles decode is running
system.cpu1.decode.SquashCycles                174867                       # Number of cycles decode is squashing
system.cpu1.decode.SquashedInsts                12372                       # Number of squashed instructions handled by decode
system.cpu1.decode.UnblockCycles               196703                       # Number of cycles decode is unblocking
system.cpu1.dtb.accesses                            0                       # DTB accesses
system.cpu1.dtb.hits                                0                       # DTB hits
system.cpu1.dtb.misses                              0                       # DTB misses
system.cpu1.dtb.read_accesses                       0                       # DTB read accesses
system.cpu1.dtb.read_hits                           0                       # DTB read hits
system.cpu1.dtb.read_misses                         0                       # DTB read misses
system.cpu1.dtb.write_accesses                      0                       # DTB write accesses
system.cpu1.dtb.write_hits                          0                       # DTB write hits
system.cpu1.dtb.write_misses                        0                       # DTB write misses
system.cpu1.fetch.Branches                    1632969                       # Number of branches that fetch encountered
system.cpu1.fetch.CacheLines                   765224                       # Number of cache lines fetched
system.cpu1.fetch.Cycles                     22056097                       # Number of cycles fetch has run and was not squashing or blocked
system.cpu1.fetch.IcacheSquashes                53523                       # Number of outstanding Icache misses that were squashed
system.cpu1.fetch.IcacheWaitRetryStallCycles           46                       # Number of stall cycles due to full MSHR
system.cpu1.fetch.Insts                       6382611                       # Number of instructions fetch has processed
system.cpu1.fetch.MiscStallCycles                   3                       # Number of cycles fetch has spent waiting on interrupts, or bad addresses, or out of MSHRs
system.cpu1.fetch.SquashCycles                 362682                       # Number of cycles fetch has spent squashing
system.cpu1.fetch.branchRate                 0.070416                       # Number of branch fetches per cycle
system.cpu1.fetch.icacheStallCycles            870260                       # Number of cycles fetch is stalled on an Icache miss
system.cpu1.fetch.predictedBranches           1038398                       # Number of branches that fetch has predicted taken
system.cpu1.fetch.rate                       0.275227                       # Number of inst fetches per cycle
system.cpu1.fetch.rateDist::samples          23107747                       # Number of instructions fetched each cycle (Total)
system.cpu1.fetch.rateDist::mean             0.279070                       # Number of instructions fetched each cycle (Total)
system.cpu1.fetch.rateDist::stdev            0.677720                       # Number of instructions fetched each cycle (Total)
system.cpu1.fetch.rateDist::underflows              0      0.00%      0.00% # Number of instructions fetched each cycle (Total)
system.cpu1.fetch.rateDist::0                18645337     80.69%     80.69% # Number of instructions fetched each cycle (Total)
system.cpu1.fetch.rateDist::1                 3140510     13.59%     94.28% # Number of instructions fetched each cycle (Total)
system.cpu1.fetch.rateDist::2                  886181      3.83%     98.11% # Number of instructions fetched each cycle (Total)
system.cpu1.fetch.rateDist::3                  285548      1.24%     99.35% # Number of instructions fetched each cycle (Total)
system.cpu1.fetch.rateDist::4                   90778      0.39%     99.74% # Number of instructions fetched each cycle (Total)
system.cpu1.fetch.rateDist::5                   43993      0.19%     99.93% # Number of instructions fetched each cycle (Total)
system.cpu1.fetch.rateDist::6                   13370      0.06%     99.99% # Number of instructions fetched each cycle (Total)
system.cpu1.fetch.rateDist::7                     370      0.00%     99.99% # Number of instructions fetched each cycle (Total)
system.cpu1.fetch.rateDist::8                    1660      0.01%    100.00% # Number of instructions fetched each cycle (Total)
system.cpu1.fetch.rateDist::overflows               0      0.00%    100.00% # Number of instructions fetched each cycle (Total)
system.cpu1.fetch.rateDist::min_value               0                       # Number of instructions fetched each cycle (Total)
system.cpu1.fetch.rateDist::max_value               8                       # Number of instructions fetched each cycle (Total)
system.cpu1.fetch.rateDist::total            23107747                       # Number of instructions fetched each cycle (Total)
system.cpu1.fp_regfile_reads                       18                       # number of floating regfile reads
system.cpu1.fp_regfile_writes                       8                       # number of floating regfile writes
system.cpu1.idleCycles                          82608                       # Total number of cycles that the CPU has spent unscheduled due to idling
system.cpu1.iew.branchMispredicts              181305                       # Number of branch mispredicts detected at execute
system.cpu1.iew.exec_branches                 1103329                       # Number of branches executed
system.cpu1.iew.exec_nop                            0                       # number of nop insts executed
system.cpu1.iew.exec_rate                    0.207668                       # Inst execution rate
system.cpu1.iew.exec_refs                     1691186                       # number of memory reference insts executed
system.cpu1.iew.exec_stores                    525611                       # Number of stores executed
system.cpu1.iew.exec_swp                            0                       # number of swp insts executed
system.cpu1.iew.iewBlockCycles               16838180                       # Number of cycles IEW is blocking
system.cpu1.iew.iewDispLoadInsts              1317129                       # Number of dispatched load instructions
system.cpu1.iew.iewDispNonSpecInsts             66011                       # Number of dispatched non-speculative instructions
system.cpu1.iew.iewDispSquashedInsts           164897                       # Number of squashed instructions skipped by dispatch
system.cpu1.iew.iewDispStoreInsts              619398                       # Number of dispatched store instructions
system.cpu1.iew.iewDispatchedInsts            5396512                       # Number of instructions dispatched to IQ
system.cpu1.iew.iewExecLoadInsts              1165575                       # Number of load instructions executed
system.cpu1.iew.iewExecSquashedInsts           221126                       # Number of squashed instructions skipped in execute
system.cpu1.iew.iewExecutedInsts              4815891                       # Number of executed instructions
system.cpu1.iew.iewIQFullEvents                 45241                       # Number of times the IQ has become full, causing a stall
system.cpu1.iew.iewIdleCycles                       0                       # Number of cycles IEW is idle
system.cpu1.iew.iewLSQFullEvents                57148                       # Number of times the LSQ has become full, causing a stall
system.cpu1.iew.iewSquashCycles                174867                       # Number of cycles IEW is squashing
system.cpu1.iew.iewUnblockCycles               215668                       # Number of cycles IEW is unblocking
system.cpu1.iew.lsq.thread0.blockedLoads            0                       # Number of blocked loads due to partial load-store forwarding
system.cpu1.iew.lsq.thread0.cacheBlocked         3202                       # Number of times an access to memory failed due to the cache being blocked
system.cpu1.iew.lsq.thread0.forwLoads           39230                       # Number of loads that had data forwarded from stores
system.cpu1.iew.lsq.thread0.ignoredResponses         1873                       # Number of memory responses ignored because the instruction is squashed
system.cpu1.iew.lsq.thread0.invAddrLoads            0                       # Number of loads ignored due to an invalid address
system.cpu1.iew.lsq.thread0.invAddrSwpfs            0                       # Number of software prefetches ignored due to an invalid address
system.cpu1.iew.lsq.thread0.memOrderViolation          305                       # Number of memory ordering violations
system.cpu1.iew.lsq.thread0.rescheduledLoads          100                       # Number of loads that were rescheduled
system.cpu1.iew.lsq.thread0.squashedLoads       332519                       # Number of loads squashed
system.cpu1.iew.lsq.thread0.squashedStores       199676                       # Number of stores squashed
system.cpu1.iew.memOrderViolationEvents           305                       # Number of memory order violations
system.cpu1.iew.predictedNotTakenIncorrect        85202                       # Number of branches that were predicted not taken incorrectly
system.cpu1.iew.predictedTakenIncorrect         96103                       # Number of branches that were predicted taken incorrectly
system.cpu1.iew.wb_consumers                  2210881                       # num instructions consuming a value
system.cpu1.iew.wb_count                      4711144                       # cumulative count of insts written-back
system.cpu1.iew.wb_fanout                    0.780133                       # average fanout of values written-back
system.cpu1.iew.wb_producers                  1724781                       # num instructions producing a value
system.cpu1.iew.wb_rate                      0.203151                       # insts written-back per cycle
system.cpu1.iew.wb_sent                       4716856                       # cumulative count of insts sent to commit
system.cpu1.int_regfile_reads                 6066166                       # number of integer regfile reads
system.cpu1.int_regfile_writes                3032792                       # number of integer regfile writes
system.cpu1.ipc                              0.163321                       # IPC: Instructions Per Cycle
system.cpu1.ipc_total                        0.163321                       # IPC: Total IPC of All Threads
system.cpu1.iq.FU_type_0::No_OpClass           131408      2.61%      2.61% # Type of FU issued
system.cpu1.iq.FU_type_0::IntAlu              3131356     62.17%     64.78% # Type of FU issued
system.cpu1.iq.FU_type_0::IntMult                 643      0.01%     64.79% # Type of FU issued
system.cpu1.iq.FU_type_0::IntDiv                   30      0.00%     64.79% # Type of FU issued
system.cpu1.iq.FU_type_0::FloatAdd                  0      0.00%     64.79% # Type of FU issued
system.cpu1.iq.FU_type_0::FloatCmp                  0      0.00%     64.79% # Type of FU issued
system.cpu1.iq.FU_type_0::FloatCvt                  0      0.00%     64.79% # Type of FU issued
system.cpu1.iq.FU_type_0::FloatMult                 0      0.00%     64.79% # Type of FU issued
system.cpu1.iq.FU_type_0::FloatMultAcc              0      0.00%     64.79% # Type of FU issued
system.cpu1.iq.FU_type_0::FloatDiv                  0      0.00%     64.79% # Type of FU issued
system.cpu1.iq.FU_type_0::FloatMisc                 0      0.00%     64.79% # Type of FU issued
system.cpu1.iq.FU_type_0::FloatSqrt                 0      0.00%     64.79% # Type of FU issued
system.cpu1.iq.FU_type_0::SimdAdd                   0      0.00%     64.79% # Type of FU issued
system.cpu1.iq.FU_type_0::SimdAddAcc                0      0.00%     64.79% # Type of FU issued
system.cpu1.iq.FU_type_0::SimdAlu                   0      0.00%     64.79% # Type of FU issued
system.cpu1.iq.FU_type_0::SimdCmp                   0      0.00%     64.79% # Type of FU issued
system.cpu1.iq.FU_type_0::SimdCvt                   0      0.00%     64.79% # Type of FU issued
system.cpu1.iq.FU_type_0::SimdMisc                  0      0.00%     64.79% # Type of FU issued
system.cpu1.iq.FU_type_0::SimdMult                  0      0.00%     64.79% # Type of FU issued
system.cpu1.iq.FU_type_0::SimdMultAcc               0      0.00%     64.79% # Type of FU issued
system.cpu1.iq.FU_type_0::SimdShift                 0      0.00%     64.79% # Type of FU issued
system.cpu1.iq.FU_type_0::SimdShiftAcc              0      0.00%     64.79% # Type of FU issued
system.cpu1.iq.FU_type_0::SimdDiv                   0      0.00%     64.79% # Type of FU issued
system.cpu1.iq.FU_type_0::SimdSqrt                  0      0.00%     64.79% # Type of FU issued
system.cpu1.iq.FU_type_0::SimdFloatAdd              0      0.00%     64.79% # Type of FU issued
system.cpu1.iq.FU_type_0::SimdFloatAlu              0      0.00%     64.79% # Type of FU issued
system.cpu1.iq.FU_type_0::SimdFloatCmp              0      0.00%     64.79% # Type of FU issued
system.cpu1.iq.FU_type_0::SimdFloatCvt              0      0.00%     64.79% # Type of FU issued
system.cpu1.iq.FU_type_0::SimdFloatDiv              0      0.00%     64.79% # Type of FU issued
system.cpu1.iq.FU_type_0::SimdFloatMisc             0      0.00%     64.79% # Type of FU issued
system.cpu1.iq.FU_type_0::SimdFloatMult             0      0.00%     64.79% # Type of FU issued
system.cpu1.iq.FU_type_0::SimdFloatMultAcc            0      0.00%     64.79% # Type of FU issued
system.cpu1.iq.FU_type_0::SimdFloatSqrt             0      0.00%     64.79% # Type of FU issued
system.cpu1.iq.FU_type_0::SimdReduceAdd             0      0.00%     64.79% # Type of FU issued
system.cpu1.iq.FU_type_0::SimdReduceAlu             0      0.00%     64.79% # Type of FU issued
system.cpu1.iq.FU_type_0::SimdReduceCmp             0      0.00%     64.79% # Type of FU issued
system.cpu1.iq.FU_type_0::SimdFloatReduceAdd            0      0.00%     64.79% # Type of FU issued
system.cpu1.iq.FU_type_0::SimdFloatReduceCmp            0      0.00%     64.79% # Type of FU issued
system.cpu1.iq.FU_type_0::SimdAes                   0      0.00%     64.79% # Type of FU issued
system.cpu1.iq.FU_type_0::SimdAesMix                0      0.00%     64.79% # Type of FU issued
system.cpu1.iq.FU_type_0::SimdSha1Hash              0      0.00%     64.79% # Type of FU issued
system.cpu1.iq.FU_type_0::SimdSha1Hash2             0      0.00%     64.79% # Type of FU issued
system.cpu1.iq.FU_type_0::SimdSha256Hash            0      0.00%     64.79% # Type of FU issued
system.cpu1.iq.FU_type_0::SimdSha256Hash2            0      0.00%     64.79% # Type of FU issued
system.cpu1.iq.FU_type_0::SimdShaSigma2             0      0.00%     64.79% # Type of FU issued
system.cpu1.iq.FU_type_0::SimdShaSigma3             0      0.00%     64.79% # Type of FU issued
system.cpu1.iq.FU_type_0::SimdPredAlu               0      0.00%     64.79% # Type of FU issued
system.cpu1.iq.FU_type_0::MemRead             1291045     25.63%     90.42% # Type of FU issued
system.cpu1.iq.FU_type_0::MemWrite             482494      9.58%    100.00% # Type of FU issued
system.cpu1.iq.FU_type_0::FloatMemRead             23      0.00%    100.00% # Type of FU issued
system.cpu1.iq.FU_type_0::FloatMemWrite            18      0.00%    100.00% # Type of FU issued
system.cpu1.iq.FU_type_0::IprAccess                 0      0.00%    100.00% # Type of FU issued
system.cpu1.iq.FU_type_0::InstPrefetch              0      0.00%    100.00% # Type of FU issued
system.cpu1.iq.FU_type_0::total               5037017                       # Type of FU issued
system.cpu1.iq.fp_alu_accesses                     47                       # Number of floating point alu accesses
system.cpu1.iq.fp_inst_queue_reads                 88                       # Number of floating instruction queue reads
system.cpu1.iq.fp_inst_queue_wakeup_accesses           26                       # Number of floating instruction queue wakeup accesses
system.cpu1.iq.fp_inst_queue_writes                34                       # Number of floating instruction queue writes
system.cpu1.iq.fu_busy_cnt                      33865                       # FU busy when requested
system.cpu1.iq.fu_busy_rate                  0.006723                       # FU busy rate (busy events/executed inst)
system.cpu1.iq.fu_full::No_OpClass                  0      0.00%      0.00% # attempts to use FU when none available
system.cpu1.iq.fu_full::IntAlu                  11495     33.94%     33.94% # attempts to use FU when none available
system.cpu1.iq.fu_full::IntMult                     0      0.00%     33.94% # attempts to use FU when none available
system.cpu1.iq.fu_full::IntDiv                      0      0.00%     33.94% # attempts to use FU when none available
system.cpu1.iq.fu_full::FloatAdd                    0      0.00%     33.94% # attempts to use FU when none available
system.cpu1.iq.fu_full::FloatCmp                    0      0.00%     33.94% # attempts to use FU when none available
system.cpu1.iq.fu_full::FloatCvt                    0      0.00%     33.94% # attempts to use FU when none available
system.cpu1.iq.fu_full::FloatMult                   0      0.00%     33.94% # attempts to use FU when none available
system.cpu1.iq.fu_full::FloatMultAcc                0      0.00%     33.94% # attempts to use FU when none available
system.cpu1.iq.fu_full::FloatDiv                    0      0.00%     33.94% # attempts to use FU when none available
system.cpu1.iq.fu_full::FloatMisc                   0      0.00%     33.94% # attempts to use FU when none available
system.cpu1.iq.fu_full::FloatSqrt                   0      0.00%     33.94% # attempts to use FU when none available
system.cpu1.iq.fu_full::SimdAdd                     0      0.00%     33.94% # attempts to use FU when none available
system.cpu1.iq.fu_full::SimdAddAcc                  0      0.00%     33.94% # attempts to use FU when none available
system.cpu1.iq.fu_full::SimdAlu                     0      0.00%     33.94% # attempts to use FU when none available
system.cpu1.iq.fu_full::SimdCmp                     0      0.00%     33.94% # attempts to use FU when none available
system.cpu1.iq.fu_full::SimdCvt                     0      0.00%     33.94% # attempts to use FU when none available
system.cpu1.iq.fu_full::SimdMisc                    0      0.00%     33.94% # attempts to use FU when none available
system.cpu1.iq.fu_full::SimdMult                    0      0.00%     33.94% # attempts to use FU when none available
system.cpu1.iq.fu_full::SimdMultAcc                 0      0.00%     33.94% # attempts to use FU when none available
system.cpu1.iq.fu_full::SimdShift                   0      0.00%     33.94% # attempts to use FU when none available
system.cpu1.iq.fu_full::SimdShiftAcc                0      0.00%     33.94% # attempts to use FU when none available
system.cpu1.iq.fu_full::SimdDiv                     0      0.00%     33.94% # attempts to use FU when none available
system.cpu1.iq.fu_full::SimdSqrt                    0      0.00%     33.94% # attempts to use FU when none available
system.cpu1.iq.fu_full::SimdFloatAdd                0      0.00%     33.94% # attempts to use FU when none available
system.cpu1.iq.fu_full::SimdFloatAlu                0      0.00%     33.94% # attempts to use FU when none available
system.cpu1.iq.fu_full::SimdFloatCmp                0      0.00%     33.94% # attempts to use FU when none available
system.cpu1.iq.fu_full::SimdFloatCvt                0      0.00%     33.94% # attempts to use FU when none available
system.cpu1.iq.fu_full::SimdFloatDiv                0      0.00%     33.94% # attempts to use FU when none available
system.cpu1.iq.fu_full::SimdFloatMisc               0      0.00%     33.94% # attempts to use FU when none available
system.cpu1.iq.fu_full::SimdFloatMult               0      0.00%     33.94% # attempts to use FU when none available
system.cpu1.iq.fu_full::SimdFloatMultAcc            0      0.00%     33.94% # attempts to use FU when none available
system.cpu1.iq.fu_full::SimdFloatSqrt               0      0.00%     33.94% # attempts to use FU when none available
system.cpu1.iq.fu_full::SimdReduceAdd               0      0.00%     33.94% # attempts to use FU when none available
system.cpu1.iq.fu_full::SimdReduceAlu               0      0.00%     33.94% # attempts to use FU when none available
system.cpu1.iq.fu_full::SimdReduceCmp               0      0.00%     33.94% # attempts to use FU when none available
system.cpu1.iq.fu_full::SimdFloatReduceAdd            0      0.00%     33.94% # attempts to use FU when none available
system.cpu1.iq.fu_full::SimdFloatReduceCmp            0      0.00%     33.94% # attempts to use FU when none available
system.cpu1.iq.fu_full::SimdAes                     0      0.00%     33.94% # attempts to use FU when none available
system.cpu1.iq.fu_full::SimdAesMix                  0      0.00%     33.94% # attempts to use FU when none available
system.cpu1.iq.fu_full::SimdSha1Hash                0      0.00%     33.94% # attempts to use FU when none available
system.cpu1.iq.fu_full::SimdSha1Hash2               0      0.00%     33.94% # attempts to use FU when none available
system.cpu1.iq.fu_full::SimdSha256Hash              0      0.00%     33.94% # attempts to use FU when none available
system.cpu1.iq.fu_full::SimdSha256Hash2             0      0.00%     33.94% # attempts to use FU when none available
system.cpu1.iq.fu_full::SimdShaSigma2               0      0.00%     33.94% # attempts to use FU when none available
system.cpu1.iq.fu_full::SimdShaSigma3               0      0.00%     33.94% # attempts to use FU when none available
system.cpu1.iq.fu_full::SimdPredAlu                 0      0.00%     33.94% # attempts to use FU when none available
[...]
system.cpu1.dcache.WriteReq_mshr_misses::total        22584                       # number of WriteReq MSHR misses
system.cpu1.dcache.WriteReq_mshr_miss_latency::.cpu1.data   1683333269                       # number of WriteReq MSHR miss cycles
system.cpu1.dcache.WriteReq_mshr_miss_latency::total   1683333269                       # number of WriteReq MSHR miss cycles
system.cpu1.dcache.WriteReq_mshr_miss_rate::.cpu1.data     0.065775                       # mshr miss rate for WriteReq accesses
system.cpu1.dcache.WriteReq_mshr_miss_rate::total     0.065775                       # mshr miss rate for WriteReq accesses
system.cpu1.dcache.WriteReq_avg_mshr_miss_latency::.cpu1.data 74536.542198                       # average WriteReq mshr miss latency
system.cpu1.dcache.WriteReq_avg_mshr_miss_latency::total 74536.542198                       # average WriteReq mshr miss latency
system.cpu1.dcache.LoadLockedReq_hits::.cpu1.data         3157                       # number of LoadLockedReq hits
system.cpu1.dcache.LoadLockedReq_hits::total         3157                       # number of LoadLockedReq hits
system.cpu1.dcache.LoadLockedReq_misses::.cpu1.data          854                       # number of LoadLockedReq misses
system.cpu1.dcache.LoadLockedReq_misses::total          854                       # number of LoadLockedReq misses
system.cpu1.dcache.LoadLockedReq_miss_latency::.cpu1.data     22829500                       # number of LoadLockedReq miss cycles
system.cpu1.dcache.LoadLockedReq_miss_latency::total     22829500                       # number of LoadLockedReq miss cycles
system.cpu1.dcache.LoadLockedReq_accesses::.cpu1.data         4011                       # number of LoadLockedReq accesses(hits+misses)
system.cpu1.dcache.LoadLockedReq_accesses::total         4011                       # number of LoadLockedReq accesses(hits+misses)
system.cpu1.dcache.LoadLockedReq_miss_rate::.cpu1.data     0.212914                       # miss rate for LoadLockedReq accesses
system.cpu1.dcache.LoadLockedReq_miss_rate::total     0.212914                       # miss rate for LoadLockedReq accesses
system.cpu1.dcache.LoadLockedReq_avg_miss_latency::.cpu1.data 26732.435597                       # average LoadLockedReq miss latency
system.cpu1.dcache.LoadLockedReq_avg_miss_latency::total 26732.435597                       # average LoadLockedReq miss latency
system.cpu1.dcache.LoadLockedReq_mshr_hits::.cpu1.data          326                       # number of LoadLockedReq MSHR hits
system.cpu1.dcache.LoadLockedReq_mshr_hits::total          326                       # number of LoadLockedReq MSHR hits
system.cpu1.dcache.LoadLockedReq_mshr_misses::.cpu1.data          528                       # number of LoadLockedReq MSHR misses
system.cpu1.dcache.LoadLockedReq_mshr_misses::total          528                       # number of LoadLockedReq MSHR misses
system.cpu1.dcache.LoadLockedReq_mshr_miss_latency::.cpu1.data      4763000                       # number of LoadLockedReq MSHR miss cycles
system.cpu1.dcache.LoadLockedReq_mshr_miss_latency::total      4763000                       # number of LoadLockedReq MSHR miss cycles
system.cpu1.dcache.LoadLockedReq_mshr_miss_rate::.cpu1.data     0.131638                       # mshr miss rate for LoadLockedReq accesses
system.cpu1.dcache.LoadLockedReq_mshr_miss_rate::total     0.131638                       # mshr miss rate for LoadLockedReq accesses
system.cpu1.dcache.LoadLockedReq_avg_mshr_miss_latency::.cpu1.data  9020.833333                       # average LoadLockedReq mshr miss latency
system.cpu1.dcache.LoadLockedReq_avg_mshr_miss_latency::total  9020.833333                       # average LoadLockedReq mshr miss latency
system.cpu1.dcache.StoreCondReq_hits::.cpu1.data         1447                       # number of StoreCondReq hits
system.cpu1.dcache.StoreCondReq_hits::total         1447                       # number of StoreCondReq hits
system.cpu1.dcache.StoreCondReq_misses::.cpu1.data         1467                       # number of StoreCondReq misses
system.cpu1.dcache.StoreCondReq_misses::total         1467                       # number of StoreCondReq misses
system.cpu1.dcache.StoreCondReq_miss_latency::.cpu1.data     12045500                       # number of StoreCondReq miss cycles
system.cpu1.dcache.StoreCondReq_miss_latency::total     12045500                       # number of StoreCondReq miss cycles
system.cpu1.dcache.StoreCondReq_accesses::.cpu1.data         2914                       # number of StoreCondReq accesses(hits+misses)
system.cpu1.dcache.StoreCondReq_accesses::total         2914                       # number of StoreCondReq accesses(hits+misses)
system.cpu1.dcache.StoreCondReq_miss_rate::.cpu1.data     0.503432                       # miss rate for StoreCondReq accesses
system.cpu1.dcache.StoreCondReq_miss_rate::total     0.503432                       # miss rate for StoreCondReq accesses
system.cpu1.dcache.StoreCondReq_avg_miss_latency::.cpu1.data  8210.974778                       # average StoreCondReq miss latency
system.cpu1.dcache.StoreCondReq_avg_miss_latency::total  8210.974778                       # average StoreCondReq miss latency
system.cpu1.dcache.StoreCondReq_mshr_misses::.cpu1.data         1398                       # number of StoreCondReq MSHR misses
system.cpu1.dcache.StoreCondReq_mshr_misses::total         1398                       # number of StoreCondReq MSHR misses
system.cpu1.dcache.StoreCondReq_mshr_miss_latency::.cpu1.data     10857500                       # number of StoreCondReq MSHR miss cycles
system.cpu1.dcache.StoreCondReq_mshr_miss_latency::total     10857500                       # number of StoreCondReq MSHR miss cycles
system.cpu1.dcache.StoreCondReq_mshr_miss_rate::.cpu1.data     0.479753                       # mshr miss rate for StoreCondReq accesses
system.cpu1.dcache.StoreCondReq_mshr_miss_rate::total     0.479753                       # mshr miss rate for StoreCondReq accesses
system.cpu1.dcache.StoreCondReq_avg_mshr_miss_latency::.cpu1.data  7766.452074                       # average StoreCondReq mshr miss latency
system.cpu1.dcache.StoreCondReq_avg_mshr_miss_latency::total  7766.452074                       # average StoreCondReq mshr miss latency
system.cpu1.dcache.StoreCondFailReq_miss_latency::.cpu1.data      3460500                       # number of StoreCondFailReq miss cycles
system.cpu1.dcache.StoreCondFailReq_miss_latency::total      3460500                       # number of StoreCondFailReq miss cycles
system.cpu1.dcache.StoreCondFailReq_avg_miss_latency::.cpu1.data          inf                       # average StoreCondFailReq miss latency
system.cpu1.dcache.StoreCondFailReq_avg_miss_latency::total          inf                       # average StoreCondFailReq miss latency
system.cpu1.dcache.StoreCondFailReq_mshr_miss_latency::.cpu1.data      3250500                       # number of StoreCondFailReq MSHR miss cycles
system.cpu1.dcache.StoreCondFailReq_mshr_miss_latency::total      3250500                       # number of StoreCondFailReq MSHR miss cycles
system.cpu1.dcache.StoreCondFailReq_avg_mshr_miss_latency::.cpu1.data          inf                       # average StoreCondFailReq mshr miss latency
system.cpu1.dcache.StoreCondFailReq_avg_mshr_miss_latency::total          inf                       # average StoreCondFailReq mshr miss latency
system.cpu1.dcache.SwapReq_hits::.cpu1.data         1018                       # number of SwapReq hits
system.cpu1.dcache.SwapReq_hits::total           1018                       # number of SwapReq hits
system.cpu1.dcache.SwapReq_misses::.cpu1.data         4303                       # number of SwapReq misses
system.cpu1.dcache.SwapReq_misses::total         4303                       # number of SwapReq misses
system.cpu1.dcache.SwapReq_miss_latency::.cpu1.data    129301000                       # number of SwapReq miss cycles
system.cpu1.dcache.SwapReq_miss_latency::total    129301000                       # number of SwapReq miss cycles
system.cpu1.dcache.SwapReq_accesses::.cpu1.data         5321                       # number of SwapReq accesses(hits+misses)
system.cpu1.dcache.SwapReq_accesses::total         5321                       # number of SwapReq accesses(hits+misses)
system.cpu1.dcache.SwapReq_miss_rate::.cpu1.data     0.808683                       # miss rate for SwapReq accesses
system.cpu1.dcache.SwapReq_miss_rate::total     0.808683                       # miss rate for SwapReq accesses
system.cpu1.dcache.SwapReq_avg_miss_latency::.cpu1.data 30049.035557                       # average SwapReq miss latency
system.cpu1.dcache.SwapReq_avg_miss_latency::total 30049.035557                       # average SwapReq miss latency
system.cpu1.dcache.SwapReq_mshr_misses::.cpu1.data         4303                       # number of SwapReq MSHR misses
system.cpu1.dcache.SwapReq_mshr_misses::total         4303                       # number of SwapReq MSHR misses
system.cpu1.dcache.SwapReq_mshr_miss_latency::.cpu1.data    124998000                       # number of SwapReq MSHR miss cycles
system.cpu1.dcache.SwapReq_mshr_miss_latency::total    124998000                       # number of SwapReq MSHR miss cycles
system.cpu1.dcache.SwapReq_mshr_miss_rate::.cpu1.data     0.808683                       # mshr miss rate for SwapReq accesses
system.cpu1.dcache.SwapReq_mshr_miss_rate::total     0.808683                       # mshr miss rate for SwapReq accesses
system.cpu1.dcache.SwapReq_avg_mshr_miss_latency::.cpu1.data 29049.035557                       # average SwapReq mshr miss latency
system.cpu1.dcache.SwapReq_avg_mshr_miss_latency::total 29049.035557                       # average SwapReq mshr miss latency
system.cpu1.dcache.tags.pwrStateResidencyTicks::UNDEFINED  67902336500                       # Cumulative time (in ticks) in various power states
system.cpu1.dcache.tags.tagsinuse           31.533634                       # Cycle average of tags in use
system.cpu1.dcache.tags.total_refs            5716020                       # Total number of references to valid blocks.
system.cpu1.dcache.tags.sampled_refs          2957236                       # Sample count of references to valid blocks.
system.cpu1.dcache.tags.avg_refs             1.932893                       # Average number of references to valid blocks.
system.cpu1.dcache.tags.warmup_cycle                0                       # Cycle when the warmup percentage was hit.
system.cpu1.dcache.tags.occ_blocks::.cpu1.data    31.533634                       # Average occupied blocks per requestor
system.cpu1.dcache.tags.occ_percent::.cpu1.data     0.985426                       # Average percentage of cache occupancy
system.cpu1.dcache.tags.occ_percent::total     0.985426                       # Average percentage of cache occupancy
system.cpu1.dcache.tags.occ_task_id_blocks::1024           28                       # Occupied blocks per task id
system.cpu1.dcache.tags.age_task_id_blocks_1024::1           28                       # Occupied blocks per task id
system.cpu1.dcache.tags.occ_task_id_percent::1024     0.875000                       # Percentage of cache occupancy per task id
system.cpu1.dcache.tags.tag_accesses         20151221                       # Number of tag accesses
system.cpu1.dcache.tags.data_accesses        20151221                       # Number of data accesses
system.cpu_clk_domain.clock                       500                       # Clock period in ticks
system.tol2bus.pwrStateResidencyTicks::UNDEFINED  67902336500                       # Cumulative time (in ticks) in various power states
system.tol2bus.trans_dist::ReadResp          11847765                       # Transaction distribution
system.tol2bus.trans_dist::ReadRespWithInvalidate            8                       # Transaction distribution
system.tol2bus.trans_dist::WritebackDirty       498824                       # Transaction distribution
system.tol2bus.trans_dist::WritebackClean     11660210                       # Transaction distribution
system.tol2bus.trans_dist::CleanEvict        13753967                       # Transaction distribution
system.tol2bus.trans_dist::UpgradeReq            8712                       # Transaction distribution
system.tol2bus.trans_dist::SCUpgradeReq          4905                       # Transaction distribution
system.tol2bus.trans_dist::UpgradeResp          13617                       # Transaction distribution
system.tol2bus.trans_dist::SCUpgradeFailReq          592                       # Transaction distribution
system.tol2bus.trans_dist::UpgradeFailResp          592                       # Transaction distribution
system.tol2bus.trans_dist::ReadExReq           115647                       # Transaction distribution
system.tol2bus.trans_dist::ReadExResp          115647                       # Transaction distribution
system.tol2bus.trans_dist::ReadCleanReq        121881                       # Transaction distribution
system.tol2bus.trans_dist::ReadSharedReq     11725893                       # Transaction distribution
system.tol2bus.pkt_count_system.cpu0.icache.mem_side::system.l2.cpu_side       217996                       # Packet count per connected master and slave (bytes)
system.tol2bus.pkt_count_system.cpu0.dcache.mem_side::system.l2.cpu_side      8885871                       # Packet count per connected master and slave (bytes)
system.tol2bus.pkt_count_system.cpu1.icache.mem_side::system.l2.cpu_side        48723                       # Packet count per connected master and slave (bytes)
system.tol2bus.pkt_count_system.cpu1.dcache.mem_side::system.l2.cpu_side      8856353                       # Packet count per connected master and slave (bytes)
system.tol2bus.pkt_count_system.cpu2.icache.mem_side::system.l2.cpu_side        48510                       # Packet count per connected master and slave (bytes)
system.tol2bus.pkt_count_system.cpu2.dcache.mem_side::system.l2.cpu_side      8868059                       # Packet count per connected master and slave (bytes)
system.tol2bus.pkt_count_system.cpu3.icache.mem_side::system.l2.cpu_side        50412                       # Packet count per connected master and slave (bytes)
system.tol2bus.pkt_count_system.cpu3.dcache.mem_side::system.l2.cpu_side      8860266                       # Packet count per connected master and slave (bytes)
system.tol2bus.pkt_count::total              35836190                       # Packet count per connected master and slave (bytes)
system.tol2bus.pkt_size_system.cpu0.icache.mem_side::system.l2.cpu_side      9301120                       # Cumulative packet size per connected master and slave (bytes)
system.tol2bus.pkt_size_system.cpu0.dcache.mem_side::system.l2.cpu_side    378644672                       # Cumulative packet size per connected master and slave (bytes)
system.tol2bus.pkt_size_system.cpu1.icache.mem_side::system.l2.cpu_side      2078848                       # Cumulative packet size per connected master and slave (bytes)
system.tol2bus.pkt_size_system.cpu1.dcache.mem_side::system.l2.cpu_side    377291712                       # Cumulative packet size per connected master and slave (bytes)
system.tol2bus.pkt_size_system.cpu2.icache.mem_side::system.l2.cpu_side      2069760                       # Cumulative packet size per connected master and slave (bytes)
system.tol2bus.pkt_size_system.cpu2.dcache.mem_side::system.l2.cpu_side    377800512                       # Cumulative packet size per connected master and slave (bytes)
system.tol2bus.pkt_size_system.cpu3.icache.mem_side::system.l2.cpu_side      2150912                       # Cumulative packet size per connected master and slave (bytes)
system.tol2bus.pkt_size_system.cpu3.dcache.mem_side::system.l2.cpu_side    377427648                       # Cumulative packet size per connected master and slave (bytes)
system.tol2bus.pkt_size::total             1526765184                       # Cumulative packet size per connected master and slave (bytes)
system.tol2bus.snoops                        14032070                       # Total snoops (count)
system.tol2bus.snoopTraffic                  17109760                       # Total snoop traffic (bytes)
system.tol2bus.snoop_fanout::samples         25953958                       # Request fanout histogram
system.tol2bus.snoop_fanout::mean            0.580266                       # Request fanout histogram
system.tol2bus.snoop_fanout::stdev           0.719658                       # Request fanout histogram
system.tol2bus.snoop_fanout::underflows             0      0.00%      0.00% # Request fanout histogram
system.tol2bus.snoop_fanout::0               14002954     53.95%     53.95% # Request fanout histogram
system.tol2bus.snoop_fanout::1                9261743     35.69%     89.64% # Request fanout histogram
system.tol2bus.snoop_fanout::2                2300412      8.86%     98.50% # Request fanout histogram
system.tol2bus.snoop_fanout::3                 357755      1.38%     99.88% # Request fanout histogram
system.tol2bus.snoop_fanout::4                  31094      0.12%    100.00% # Request fanout histogram
system.tol2bus.snoop_fanout::5                      0      0.00%    100.00% # Request fanout histogram
system.tol2bus.snoop_fanout::6                      0      0.00%    100.00% # Request fanout histogram
system.tol2bus.snoop_fanout::7                      0      0.00%    100.00% # Request fanout histogram
system.tol2bus.snoop_fanout::8                      0      0.00%    100.00% # Request fanout histogram
system.tol2bus.snoop_fanout::overflows              0      0.00%    100.00% # Request fanout histogram
system.tol2bus.snoop_fanout::min_value              0                       # Request fanout histogram
system.tol2bus.snoop_fanout::max_value              4                       # Request fanout histogram
system.tol2bus.snoop_fanout::total           25953958                       # Request fanout histogram
system.tol2bus.reqLayer0.occupancy        23894472586                       # Layer occupancy (ticks)
system.tol2bus.reqLayer0.utilization             35.2                       # Layer utilization (%)
system.tol2bus.respLayer5.occupancy        4503670821                       # Layer occupancy (ticks)
system.tol2bus.respLayer5.utilization             6.6                       # Layer utilization (%)
system.tol2bus.respLayer4.occupancy          25270522                       # Layer occupancy (ticks)
system.tol2bus.respLayer4.utilization             0.0                       # Layer utilization (%)
system.tol2bus.respLayer7.occupancy        4500992186                       # Layer occupancy (ticks)
system.tol2bus.respLayer7.utilization             6.6                       # Layer utilization (%)
system.tol2bus.respLayer6.occupancy          26228013                       # Layer occupancy (ticks)
system.tol2bus.respLayer6.utilization             0.0                       # Layer utilization (%)
system.tol2bus.respLayer1.occupancy        4509387092                       # Layer occupancy (ticks)
system.tol2bus.respLayer1.utilization             6.6                       # Layer utilization (%)
system.tol2bus.respLayer0.occupancy         109200526                       # Layer occupancy (ticks)
system.tol2bus.respLayer0.utilization             0.2                       # Layer utilization (%)
system.tol2bus.respLayer3.occupancy        4498919408                       # Layer occupancy (ticks)
system.tol2bus.respLayer3.utilization             6.6                       # Layer utilization (%)
system.tol2bus.respLayer2.occupancy          25461307                       # Layer occupancy (ticks)
system.tol2bus.respLayer2.utilization             0.0                       # Layer utilization (%)

---------- End Simulation Statistics   ----------
