
---------- Begin Simulation Statistics ----------
final_tick                               573075711000                       # Number of ticks from beginning of simulation (restored from checkpoints and never reset)
host_inst_rate                                  79099                       # Simulator instruction rate (inst/s)
host_mem_usage                                 701720                       # Number of bytes of host memory used
host_op_rate                                    79362                       # Simulator op (including micro ops) rate (op/s)
host_seconds                                  7743.91                       # Real time elapsed on the host
host_tick_rate                               74003432                       # Simulator tick rate (ticks/s)
sim_freq                                 1000000000000                       # Frequency of simulated ticks
sim_insts                                   612536586                       # Number of instructions simulated
sim_ops                                     614574182                       # Number of ops (including micro ops) simulated
sim_seconds                                  0.573076                       # Number of seconds simulated
sim_ticks                                573075711000                       # Number of ticks simulated
system.cpu0.branchPred.BTBCorrect                   0                       # Number of correct BTB predictions (this stat may not work properly.
system.cpu0.branchPred.BTBHitPct            88.118222                       # BTB Hit Percentage
system.cpu0.branchPred.BTBHits               80874892                       # Number of BTB hits
system.cpu0.branchPred.BTBLookups            91779986                       # Number of BTB lookups
system.cpu0.branchPred.RASInCorrect                 0                       # Number of incorrect RAS predictions.
system.cpu0.branchPred.condIncorrect         10791728                       # Number of conditional branches incorrect
system.cpu0.branchPred.condPredicted        125690219                       # Number of conditional branches predicted
system.cpu0.branchPred.indirectHits          10393602                       # Number of indirect target hits.
system.cpu0.branchPred.indirectLookups       10603957                       # Number of indirect predictor lookups.
system.cpu0.branchPred.indirectMisses          210355                       # Number of indirect misses.
system.cpu0.branchPred.lookups              159830448                       # Number of BP lookups
system.cpu0.branchPred.usedRAS                      0                       # Number of times the RAS was used to get a target.
system.cpu0.branchPredindirectMispredicted      1064233                       # Number of mispredicted indirect branches.
system.cpu0.commit.amos                       1018195                       # Number of atomic instructions committed
system.cpu0.commit.branchMispredicts          6814225                       # The number of times a branch was mispredicted
system.cpu0.commit.branches                 143203780                       # Number of branches committed
system.cpu0.commit.bw_lim_events             14742179                       # number cycles where commit BW limit reached
system.cpu0.commit.commitNonSpecStalls        3058495                       # The number of times commit has been forced to stall to communicate backwards
system.cpu0.commit.commitSquashedInsts       50133674                       # The number of squashed insts skipped by commit
system.cpu0.commit.committedInsts           580273212                       # Number of instructions committed
system.cpu0.commit.committedOps             581292704                       # Number of ops (including micro ops) committed
system.cpu0.commit.committed_per_cycle::samples   1056710380                       # Number of insts commited each cycle
system.cpu0.commit.committed_per_cycle::mean     0.550097                       # Number of insts commited each cycle
system.cpu0.commit.committed_per_cycle::stdev     1.290161                       # Number of insts commited each cycle
system.cpu0.commit.committed_per_cycle::underflows            0      0.00%      0.00% # Number of insts commited each cycle
system.cpu0.commit.committed_per_cycle::0    771367492     73.00%     73.00% # Number of insts commited each cycle
system.cpu0.commit.committed_per_cycle::1    167061870     15.81%     88.81% # Number of insts commited each cycle
system.cpu0.commit.committed_per_cycle::2     45696833      4.32%     93.13% # Number of insts commited each cycle
system.cpu0.commit.committed_per_cycle::3     40123977      3.80%     96.93% # Number of insts commited each cycle
system.cpu0.commit.committed_per_cycle::4     10652815      1.01%     97.94% # Number of insts commited each cycle
system.cpu0.commit.committed_per_cycle::5      2796472      0.26%     98.20% # Number of insts commited each cycle
system.cpu0.commit.committed_per_cycle::6      1947009      0.18%     98.39% # Number of insts commited each cycle
system.cpu0.commit.committed_per_cycle::7      2321733      0.22%     98.60% # Number of insts commited each cycle
system.cpu0.commit.committed_per_cycle::8     14742179      1.40%    100.00% # Number of insts commited each cycle
system.cpu0.commit.committed_per_cycle::overflows            0      0.00%    100.00% # Number of insts commited each cycle
system.cpu0.commit.committed_per_cycle::min_value            0                       # Number of insts commited each cycle
system.cpu0.commit.committed_per_cycle::max_value            8                       # Number of insts commited each cycle
system.cpu0.commit.committed_per_cycle::total   1056710380                       # Number of insts commited each cycle
system.cpu0.commit.fp_insts                        50                       # Number of committed floating point instructions.
system.cpu0.commit.function_calls            11887459                       # Number of function calls committed.
system.cpu0.commit.int_insts                561272333                       # Number of committed integer instructions.
system.cpu0.commit.loads                    179952052                       # Number of loads committed
system.cpu0.commit.membars                    2037593                       # Number of memory barriers committed
system.cpu0.commit.op_class_0::No_OpClass      2037599      0.35%      0.35% # Class of committed instruction
system.cpu0.commit.op_class_0::IntAlu       322220433     55.43%     55.78% # Class of committed instruction
system.cpu0.commit.op_class_0::IntMult        4135822      0.71%     56.49% # Class of committed instruction
system.cpu0.commit.op_class_0::IntDiv         1017773      0.18%     56.67% # Class of committed instruction
system.cpu0.commit.op_class_0::FloatAdd             0      0.00%     56.67% # Class of committed instruction
system.cpu0.commit.op_class_0::FloatCmp             4      0.00%     56.67% # Class of committed instruction
system.cpu0.commit.op_class_0::FloatCvt            12      0.00%     56.67% # Class of committed instruction
system.cpu0.commit.op_class_0::FloatMult            0      0.00%     56.67% # Class of committed instruction
system.cpu0.commit.op_class_0::FloatMultAcc            0      0.00%     56.67% # Class of committed instruction
system.cpu0.commit.op_class_0::FloatDiv             2      0.00%     56.67% # Class of committed instruction
system.cpu0.commit.op_class_0::FloatMisc            4      0.00%     56.67% # Class of committed instruction
system.cpu0.commit.op_class_0::FloatSqrt            0      0.00%     56.67% # Class of committed instruction
system.cpu0.commit.op_class_0::SimdAdd              0      0.00%     56.67% # Class of committed instruction
system.cpu0.commit.op_class_0::SimdAddAcc            0      0.00%     56.67% # Class of committed instruction
system.cpu0.commit.op_class_0::SimdAlu              0      0.00%     56.67% # Class of committed instruction
system.cpu0.commit.op_class_0::SimdCmp              0      0.00%     56.67% # Class of committed instruction
system.cpu0.commit.op_class_0::SimdCvt              0      0.00%     56.67% # Class of committed instruction
system.cpu0.commit.op_class_0::SimdMisc             0      0.00%     56.67% # Class of committed instruction
system.cpu0.commit.op_class_0::SimdMult             0      0.00%     56.67% # Class of committed instruction
system.cpu0.commit.op_class_0::SimdMultAcc            0      0.00%     56.67% # Class of committed instruction
system.cpu0.commit.op_class_0::SimdShift            0      0.00%     56.67% # Class of committed instruction
system.cpu0.commit.op_class_0::SimdShiftAcc            0      0.00%     56.67% # Class of committed instruction
system.cpu0.commit.op_class_0::SimdDiv              0      0.00%     56.67% # Class of committed instruction
system.cpu0.commit.op_class_0::SimdSqrt             0      0.00%     56.67% # Class of committed instruction
system.cpu0.commit.op_class_0::SimdFloatAdd            0      0.00%     56.67% # Class of committed instruction
system.cpu0.commit.op_class_0::SimdFloatAlu            0      0.00%     56.67% # Class of committed instruction
system.cpu0.commit.op_class_0::SimdFloatCmp            0      0.00%     56.67% # Class of committed instruction
system.cpu0.commit.op_class_0::SimdFloatCvt            0      0.00%     56.67% # Class of committed instruction
system.cpu0.commit.op_class_0::SimdFloatDiv            0      0.00%     56.67% # Class of committed instruction
system.cpu0.commit.op_class_0::SimdFloatMisc            0      0.00%     56.67% # Class of committed instruction
system.cpu0.commit.op_class_0::SimdFloatMult            0      0.00%     56.67% # Class of committed instruction
system.cpu0.commit.op_class_0::SimdFloatMultAcc            0      0.00%     56.67% # Class of committed instruction
system.cpu0.commit.op_class_0::SimdFloatSqrt            0      0.00%     56.67% # Class of committed instruction
system.cpu0.commit.op_class_0::SimdReduceAdd            0      0.00%     56.67% # Class of committed instruction
system.cpu0.commit.op_class_0::SimdReduceAlu            0      0.00%     56.67% # Class of committed instruction
system.cpu0.commit.op_class_0::SimdReduceCmp            0      0.00%     56.67% # Class of committed instruction
system.cpu0.commit.op_class_0::SimdFloatReduceAdd            0      0.00%     56.67% # Class of committed instruction
system.cpu0.commit.op_class_0::SimdFloatReduceCmp            0      0.00%     56.67% # Class of committed instruction
system.cpu0.commit.op_class_0::SimdAes              0      0.00%     56.67% # Class of committed instruction
system.cpu0.commit.op_class_0::SimdAesMix            0      0.00%     56.67% # Class of committed instruction
system.cpu0.commit.op_class_0::SimdSha1Hash            0      0.00%     56.67% # Class of committed instruction
system.cpu0.commit.op_class_0::SimdSha1Hash2            0      0.00%     56.67% # Class of committed instruction
system.cpu0.commit.op_class_0::SimdSha256Hash            0      0.00%     56.67% # Class of committed instruction
system.cpu0.commit.op_class_0::SimdSha256Hash2            0      0.00%     56.67% # Class of committed instruction
system.cpu0.commit.op_class_0::SimdShaSigma2            0      0.00%     56.67% # Class of committed instruction
system.cpu0.commit.op_class_0::SimdShaSigma3            0      0.00%     56.67% # Class of committed instruction
system.cpu0.commit.op_class_0::SimdPredAlu            0      0.00%     56.67% # Class of committed instruction
system.cpu0.commit.op_class_0::MemRead      180970239     31.13%     87.80% # Class of committed instruction
system.cpu0.commit.op_class_0::MemWrite      70910788     12.20%    100.00% # Class of committed instruction
system.cpu0.commit.op_class_0::FloatMemRead            8      0.00%    100.00% # Class of committed instruction
system.cpu0.commit.op_class_0::FloatMemWrite           20      0.00%    100.00% # Class of committed instruction
system.cpu0.commit.op_class_0::IprAccess            0      0.00%    100.00% # Class of committed instruction
system.cpu0.commit.op_class_0::InstPrefetch            0      0.00%    100.00% # Class of committed instruction
system.cpu0.commit.op_class_0::total        581292704                       # Class of committed instruction
system.cpu0.commit.refs                     251881055                       # Number of memory references committed
system.cpu0.commit.swp_count                        0                       # Number of s/w prefetches committed
system.cpu0.commit.vec_insts                        0                       # Number of committed Vector instructions.
system.cpu0.committedInsts                  580273212                       # Number of Instructions Simulated
system.cpu0.committedOps                    581292704                       # Number of Ops (including micro ops) Simulated
system.cpu0.cpi                              1.955034                       # CPI: Cycles Per Instruction
system.cpu0.cpi_total                        1.955034                       # CPI: Total CPI of All Threads
system.cpu0.decode.BlockedCycles            156991226                       # Number of cycles decode is blocked
system.cpu0.decode.BranchMispred              3990863                       # Number of times decode detected a branch misprediction
system.cpu0.decode.BranchResolved            79952301                       # Number of times decode resolved a branch
system.cpu0.decode.DecodedInsts             647922233                       # Number of instructions handled by decode
system.cpu0.decode.IdleCycles               460222709                       # Number of cycles decode is idle
system.cpu0.decode.RunCycles                440051490                       # Number of cycles decode is running
system.cpu0.decode.SquashCycles               6821555                       # Number of cycles decode is squashing
system.cpu0.decode.SquashedInsts              9436860                       # Number of squashed instructions handled by decode
system.cpu0.decode.UnblockCycles              3298711                       # Number of cycles decode is unblocking
system.cpu0.dtb.accesses                            0                       # DTB accesses
system.cpu0.dtb.hits                                0                       # DTB hits
system.cpu0.dtb.misses                              0                       # DTB misses
system.cpu0.dtb.read_accesses                       0                       # DTB read accesses
system.cpu0.dtb.read_hits                           0                       # DTB read hits
system.cpu0.dtb.read_misses                         0                       # DTB read misses
system.cpu0.dtb.write_accesses                      0                       # DTB write accesses
system.cpu0.dtb.write_hits                          0                       # DTB write hits
system.cpu0.dtb.write_misses                        0                       # DTB write misses
system.cpu0.fetch.Branches                  159830448                       # Number of branches that fetch encountered
system.cpu0.fetch.CacheLines                118624745                       # Number of cache lines fetched
system.cpu0.fetch.Cycles                    610825775                       # Number of cycles fetch has run and was not squashing or blocked
system.cpu0.fetch.IcacheSquashes              3465444                       # Number of outstanding Icache misses that were squashed
system.cpu0.fetch.IcacheWaitRetryStallCycles          131                       # Number of stall cycles due to full MSHR
system.cpu0.fetch.Insts                     669126491                       # Number of instructions fetch has processed
system.cpu0.fetch.MiscStallCycles                  77                       # Number of cycles fetch has spent waiting on interrupts, or bad addresses, or out of MSHRs
system.cpu0.fetch.PendingTrapStallCycles          385                       # Number of stall cycles due to pending traps
system.cpu0.fetch.SquashCycles               21598234                       # Number of cycles fetch has spent squashing
system.cpu0.fetch.branchRate                 0.140888                       # Number of branch fetches per cycle
system.cpu0.fetch.icacheStallCycles         445760206                       # Number of cycles fetch is stalled on an Icache miss
system.cpu0.fetch.predictedBranches          91268494                       # Number of branches that fetch has predicted taken
system.cpu0.fetch.rate                       0.589823                       # Number of inst fetches per cycle
system.cpu0.fetch.rateDist::samples        1067385691                       # Number of instructions fetched each cycle (Total)
system.cpu0.fetch.rateDist::mean             0.629467                       # Number of instructions fetched each cycle (Total)
system.cpu0.fetch.rateDist::stdev            0.924742                       # Number of instructions fetched each cycle (Total)
system.cpu0.fetch.rateDist::underflows              0      0.00%      0.00% # Number of instructions fetched each cycle (Total)
system.cpu0.fetch.rateDist::0               602973579     56.49%     56.49% # Number of instructions fetched each cycle (Total)
system.cpu0.fetch.rateDist::1               340169342     31.87%     88.36% # Number of instructions fetched each cycle (Total)
system.cpu0.fetch.rateDist::2                65392411      6.13%     94.49% # Number of instructions fetched each cycle (Total)
system.cpu0.fetch.rateDist::3                44852832      4.20%     98.69% # Number of instructions fetched each cycle (Total)
system.cpu0.fetch.rateDist::4                 8016538      0.75%     99.44% # Number of instructions fetched each cycle (Total)
system.cpu0.fetch.rateDist::5                 3627744      0.34%     99.78% # Number of instructions fetched each cycle (Total)
system.cpu0.fetch.rateDist::6                  309659      0.03%     99.81% # Number of instructions fetched each cycle (Total)
system.cpu0.fetch.rateDist::7                 2040570      0.19%    100.00% # Number of instructions fetched each cycle (Total)
system.cpu0.fetch.rateDist::8                    3016      0.00%    100.00% # Number of instructions fetched each cycle (Total)
system.cpu0.fetch.rateDist::overflows               0      0.00%    100.00% # Number of instructions fetched each cycle (Total)
system.cpu0.fetch.rateDist::min_value               0                       # Number of instructions fetched each cycle (Total)
system.cpu0.fetch.rateDist::max_value               8                       # Number of instructions fetched each cycle (Total)
system.cpu0.fetch.rateDist::total          1067385691                       # Number of instructions fetched each cycle (Total)
system.cpu0.fp_regfile_reads                       44                       # number of floating regfile reads
system.cpu0.fp_regfile_writes                      23                       # number of floating regfile writes
system.cpu0.idleCycles                       67067914                       # Total number of cycles that the CPU has spent unscheduled due to idling
system.cpu0.iew.branchMispredicts             6880439                       # Number of branch mispredicts detected at execute
system.cpu0.iew.exec_branches               149155999                       # Number of branches executed
system.cpu0.iew.exec_nop                            0                       # number of nop insts executed
system.cpu0.iew.exec_rate                    0.536334                       # Inst execution rate
system.cpu0.iew.exec_refs                   265239351                       # number of memory reference insts executed
system.cpu0.iew.exec_stores                  74257363                       # Number of stores executed
system.cpu0.iew.exec_swp                            0                       # number of swp insts executed
system.cpu0.iew.iewBlockCycles              129381392                       # Number of cycles IEW is blocking
system.cpu0.iew.iewDispLoadInsts            198122502                       # Number of dispatched load instructions
system.cpu0.iew.iewDispNonSpecInsts           2023416                       # Number of dispatched non-speculative instructions
system.cpu0.iew.iewDispSquashedInsts          2857651                       # Number of squashed instructions skipped by dispatch
system.cpu0.iew.iewDispStoreInsts            76965794                       # Number of dispatched store instructions
system.cpu0.iew.iewDispatchedInsts          631411248                       # Number of instructions dispatched to IQ
system.cpu0.iew.iewExecLoadInsts            190981988                       # Number of load instructions executed
system.cpu0.iew.iewExecSquashedInsts          4181767                       # Number of squashed instructions skipped in execute
system.cpu0.iew.iewExecutedInsts            608445577                       # Number of executed instructions
system.cpu0.iew.iewIQFullEvents               1012882                       # Number of times the IQ has become full, causing a stall
system.cpu0.iew.iewIdleCycles                       0                       # Number of cycles IEW is idle
system.cpu0.iew.iewLSQFullEvents              2122866                       # Number of times the LSQ has become full, causing a stall
system.cpu0.iew.iewSquashCycles               6821555                       # Number of cycles IEW is squashing
system.cpu0.iew.iewUnblockCycles              4197541                       # Number of cycles IEW is unblocking
system.cpu0.iew.lsq.thread0.blockedLoads            0                       # Number of blocked loads due to partial load-store forwarding
system.cpu0.iew.lsq.thread0.cacheBlocked        66328                       # Number of times an access to memory failed due to the cache being blocked
system.cpu0.iew.lsq.thread0.forwLoads         8056242                       # Number of loads that had data forwarded from stores
system.cpu0.iew.lsq.thread0.ignoredResponses        29439                       # Number of memory responses ignored because the instruction is squashed
system.cpu0.iew.lsq.thread0.invAddrLoads            0                       # Number of loads ignored due to an invalid address
system.cpu0.iew.lsq.thread0.invAddrSwpfs            0                       # Number of software prefetches ignored due to an invalid address
system.cpu0.iew.lsq.thread0.memOrderViolation         7678                       # Number of memory ordering violations
system.cpu0.iew.lsq.thread0.rescheduledLoads      2362488                       # Number of loads that were rescheduled
system.cpu0.iew.lsq.thread0.squashedLoads     18170450                       # Number of loads squashed
system.cpu0.iew.lsq.thread0.squashedStores      5036791                       # Number of stores squashed
system.cpu0.iew.memOrderViolationEvents          7678                       # Number of memory order violations
system.cpu0.iew.predictedNotTakenIncorrect       857854                       # Number of branches that were predicted not taken incorrectly
system.cpu0.iew.predictedTakenIncorrect       6022585                       # Number of branches that were predicted taken incorrectly
system.cpu0.iew.wb_consumers                258598245                       # num instructions consuming a value
system.cpu0.iew.wb_count                    603028968                       # cumulative count of insts written-back
system.cpu0.iew.wb_fanout                    0.870817                       # average fanout of values written-back
system.cpu0.iew.wb_producers                225191733                       # num instructions producing a value
system.cpu0.iew.wb_rate                      0.531559                       # insts written-back per cycle
system.cpu0.iew.wb_sent                     603076013                       # cumulative count of insts sent to commit
system.cpu0.int_regfile_reads               743070377                       # number of integer regfile reads
system.cpu0.int_regfile_writes              384161299                       # number of integer regfile writes
system.cpu0.ipc                              0.511500                       # IPC: Instructions Per Cycle
system.cpu0.ipc_total                        0.511500                       # IPC: Total IPC of All Threads
system.cpu0.iq.FU_type_0::No_OpClass          2038516      0.33%      0.33% # Type of FU issued
system.cpu0.iq.FU_type_0::IntAlu            338311328     55.22%     55.56% # Type of FU issued
system.cpu0.iq.FU_type_0::IntMult             4139654      0.68%     56.23% # Type of FU issued
system.cpu0.iq.FU_type_0::IntDiv              1018060      0.17%     56.40% # Type of FU issued
system.cpu0.iq.FU_type_0::FloatAdd                  0      0.00%     56.40% # Type of FU issued
system.cpu0.iq.FU_type_0::FloatCmp                  4      0.00%     56.40% # Type of FU issued
system.cpu0.iq.FU_type_0::FloatCvt                 12      0.00%     56.40% # Type of FU issued
system.cpu0.iq.FU_type_0::FloatMult                 0      0.00%     56.40% # Type of FU issued
system.cpu0.iq.FU_type_0::FloatMultAcc              0      0.00%     56.40% # Type of FU issued
system.cpu0.iq.FU_type_0::FloatDiv                  2      0.00%     56.40% # Type of FU issued
system.cpu0.iq.FU_type_0::FloatMisc                 4      0.00%     56.40% # Type of FU issued
system.cpu0.iq.FU_type_0::FloatSqrt                 0      0.00%     56.40% # Type of FU issued
system.cpu0.iq.FU_type_0::SimdAdd                   0      0.00%     56.40% # Type of FU issued
system.cpu0.iq.FU_type_0::SimdAddAcc                0      0.00%     56.40% # Type of FU issued
system.cpu0.iq.FU_type_0::SimdAlu                   0      0.00%     56.40% # Type of FU issued
system.cpu0.iq.FU_type_0::SimdCmp                   0      0.00%     56.40% # Type of FU issued
system.cpu0.iq.FU_type_0::SimdCvt                   0      0.00%     56.40% # Type of FU issued
system.cpu0.iq.FU_type_0::SimdMisc                  0      0.00%     56.40% # Type of FU issued
system.cpu0.iq.FU_type_0::SimdMult                  0      0.00%     56.40% # Type of FU issued
system.cpu0.iq.FU_type_0::SimdMultAcc               0      0.00%     56.40% # Type of FU issued
system.cpu0.iq.FU_type_0::SimdShift                 0      0.00%     56.40% # Type of FU issued
system.cpu0.iq.FU_type_0::SimdShiftAcc              0      0.00%     56.40% # Type of FU issued
system.cpu0.iq.FU_type_0::SimdDiv                   0      0.00%     56.40% # Type of FU issued
system.cpu0.iq.FU_type_0::SimdSqrt                  0      0.00%     56.40% # Type of FU issued
system.cpu0.iq.FU_type_0::SimdFloatAdd              0      0.00%     56.40% # Type of FU issued
system.cpu0.iq.FU_type_0::SimdFloatAlu              0      0.00%     56.40% # Type of FU issued
system.cpu0.iq.FU_type_0::SimdFloatCmp              0      0.00%     56.40% # Type of FU issued
system.cpu0.iq.FU_type_0::SimdFloatCvt              0      0.00%     56.40% # Type of FU issued
system.cpu0.iq.FU_type_0::SimdFloatDiv              0      0.00%     56.40% # Type of FU issued
system.cpu0.iq.FU_type_0::SimdFloatMisc             0      0.00%     56.40% # Type of FU issued
system.cpu0.iq.FU_type_0::SimdFloatMult             0      0.00%     56.40% # Type of FU issued
system.cpu0.iq.FU_type_0::SimdFloatMultAcc            0      0.00%     56.40% # Type of FU issued
system.cpu0.iq.FU_type_0::SimdFloatSqrt             0      0.00%     56.40% # Type of FU issued
system.cpu0.iq.FU_type_0::SimdReduceAdd             0      0.00%     56.40% # Type of FU issued
system.cpu0.iq.FU_type_0::SimdReduceAlu             0      0.00%     56.40% # Type of FU issued
system.cpu0.iq.FU_type_0::SimdReduceCmp             0      0.00%     56.40% # Type of FU issued
system.cpu0.iq.FU_type_0::SimdFloatReduceAdd            0      0.00%     56.40% # Type of FU issued
system.cpu0.iq.FU_type_0::SimdFloatReduceCmp            0      0.00%     56.40% # Type of FU issued
system.cpu0.iq.FU_type_0::SimdAes                   0      0.00%     56.40% # Type of FU issued
system.cpu0.iq.FU_type_0::SimdAesMix                0      0.00%     56.40% # Type of FU issued
system.cpu0.iq.FU_type_0::SimdSha1Hash              0      0.00%     56.40% # Type of FU issued
system.cpu0.iq.FU_type_0::SimdSha1Hash2             0      0.00%     56.40% # Type of FU issued
system.cpu0.iq.FU_type_0::SimdSha256Hash            0      0.00%     56.40% # Type of FU issued
system.cpu0.iq.FU_type_0::SimdSha256Hash2            0      0.00%     56.40% # Type of FU issued
system.cpu0.iq.FU_type_0::SimdShaSigma2             0      0.00%     56.40% # Type of FU issued
system.cpu0.iq.FU_type_0::SimdShaSigma3             0      0.00%     56.40% # Type of FU issued
system.cpu0.iq.FU_type_0::SimdPredAlu               0      0.00%     56.40% # Type of FU issued
system.cpu0.iq.FU_type_0::MemRead           193683943     31.62%     88.01% # Type of FU issued
system.cpu0.iq.FU_type_0::MemWrite           73435792     11.99%    100.00% # Type of FU issued
system.cpu0.iq.FU_type_0::FloatMemRead             10      0.00%    100.00% # Type of FU issued
system.cpu0.iq.FU_type_0::FloatMemWrite            20      0.00%    100.00% # Type of FU issued
system.cpu0.iq.FU_type_0::IprAccess                 0      0.00%    100.00% # Type of FU issued
system.cpu0.iq.FU_type_0::InstPrefetch              0      0.00%    100.00% # Type of FU issued
system.cpu0.iq.FU_type_0::total             612627345                       # Type of FU issued
system.cpu0.iq.fp_alu_accesses                     54                       # Number of floating point alu accesses
system.cpu0.iq.fp_inst_queue_reads                106                       # Number of floating instruction queue reads
system.cpu0.iq.fp_inst_queue_wakeup_accesses           51                       # Number of floating instruction queue wakeup accesses
system.cpu0.iq.fp_inst_queue_writes                52                       # Number of floating instruction queue writes
system.cpu0.iq.fu_busy_cnt                    1332536                       # FU busy when requested
system.cpu0.iq.fu_busy_rate                  0.002175                       # FU busy rate (busy events/executed inst)
system.cpu0.iq.fu_full::No_OpClass                  0      0.00%      0.00% # attempts to use FU when none available
system.cpu0.iq.fu_full::IntAlu                 222526     16.70%     16.70% # attempts to use FU when none available
system.cpu0.iq.fu_full::IntMult                     0      0.00%     16.70% # attempts to use FU when none available
system.cpu0.iq.fu_full::IntDiv                      0      0.00%     16.70% # attempts to use FU when none available
system.cpu0.iq.fu_full::FloatAdd                    0      0.00%     16.70% # attempts to use FU when none available
system.cpu0.iq.fu_full::FloatCmp                    0      0.00%     16.70% # attempts to use FU when none available
system.cpu0.iq.fu_full::FloatCvt                    0      0.00%     16.70% # attempts to use FU when none available
system.cpu0.iq.fu_full::FloatMult                   0      0.00%     16.70% # attempts to use FU when none available
system.cpu0.iq.fu_full::FloatMultAcc                0      0.00%     16.70% # attempts to use FU when none available
system.cpu0.iq.fu_full::FloatDiv                    0      0.00%     16.70% # attempts to use FU when none available
system.cpu0.iq.fu_full::FloatMisc                   0      0.00%     16.70% # attempts to use FU when none available
system.cpu0.iq.fu_full::FloatSqrt                   0      0.00%     16.70% # attempts to use FU when none available
system.cpu0.iq.fu_full::SimdAdd                     0      0.00%     16.70% # attempts to use FU when none available
system.cpu0.iq.fu_full::SimdAddAcc                  0      0.00%     16.70% # attempts to use FU when none available
system.cpu0.iq.fu_full::SimdAlu                     0      0.00%     16.70% # attempts to use FU when none available
system.cpu0.iq.fu_full::SimdCmp                     0      0.00%     16.70% # attempts to use FU when none available
system.cpu0.iq.fu_full::SimdCvt                     0      0.00%     16.70% # attempts to use FU when none available
system.cpu0.iq.fu_full::SimdMisc                    0      0.00%     16.70% # attempts to use FU when none available
system.cpu0.iq.fu_full::SimdMult                    0      0.00%     16.70% # attempts to use FU when none available
system.cpu0.iq.fu_full::SimdMultAcc                 0      0.00%     16.70% # attempts to use FU when none available
system.cpu0.iq.fu_full::SimdShift                   0      0.00%     16.70% # attempts to use FU when none available
system.cpu0.iq.fu_full::SimdShiftAcc                0      0.00%     16.70% # attempts to use FU when none available
system.cpu0.iq.fu_full::SimdDiv                     0      0.00%     16.70% # attempts to use FU when none available
system.cpu0.iq.fu_full::SimdSqrt                    0      0.00%     16.70% # attempts to use FU when none available
system.cpu0.iq.fu_full::SimdFloatAdd                0      0.00%     16.70% # attempts to use FU when none available
system.cpu0.iq.fu_full::SimdFloatAlu                0      0.00%     16.70% # attempts to use FU when none available
system.cpu0.iq.fu_full::SimdFloatCmp                0      0.00%     16.70% # attempts to use FU when none available
system.cpu0.iq.fu_full::SimdFloatCvt                0      0.00%     16.70% # attempts to use FU when none available
system.cpu0.iq.fu_full::SimdFloatDiv                0      0.00%     16.70% # attempts to use FU when none available
system.cpu0.iq.fu_full::SimdFloatMisc               0      0.00%     16.70% # attempts to use FU when none available
system.cpu0.iq.fu_full::SimdFloatMult               0      0.00%     16.70% # attempts to use FU when none available
system.cpu0.iq.fu_full::SimdFloatMultAcc            0      0.00%     16.70% # attempts to use FU when none available
system.cpu0.iq.fu_full::SimdFloatSqrt               0      0.00%     16.70% # attempts to use FU when none available
system.cpu0.iq.fu_full::SimdReduceAdd               0      0.00%     16.70% # attempts to use FU when none available
system.cpu0.iq.fu_full::SimdReduceAlu               0      0.00%     16.70% # attempts to use FU when none available
system.cpu0.iq.fu_full::SimdReduceCmp               0      0.00%     16.70% # attempts to use FU when none available
system.cpu0.iq.fu_full::SimdFloatReduceAdd            0      0.00%     16.70% # attempts to use FU when none available
system.cpu0.iq.fu_full::SimdFloatReduceCmp            0      0.00%     16.70% # attempts to use FU when none available
system.cpu0.iq.fu_full::SimdAes                     0      0.00%     16.70% # attempts to use FU when none available
system.cpu0.iq.fu_full::SimdAesMix                  0      0.00%     16.70% # attempts to use FU when none available
system.cpu0.iq.fu_full::SimdSha1Hash                0      0.00%     16.70% # attempts to use FU when none available
system.cpu0.iq.fu_full::SimdSha1Hash2               0      0.00%     16.70% # attempts to use FU when none available
system.cpu0.iq.fu_full::SimdSha256Hash              0      0.00%     16.70% # attempts to use FU when none available
system.cpu0.iq.fu_full::SimdSha256Hash2             0      0.00%     16.70% # attempts to use FU when none available
system.cpu0.iq.fu_full::SimdShaSigma2               0      0.00%     16.70% # attempts to use FU when none available
system.cpu0.iq.fu_full::SimdShaSigma3               0      0.00%     16.70% # attempts to use FU when none available
system.cpu0.iq.fu_full::SimdPredAlu                 0      0.00%     16.70% # attempts to use FU when none available
system.cpu0.iq.fu_full::MemRead                970523     72.83%     89.53% # attempts to use FU when none available
system.cpu0.iq.fu_full::MemWrite               139485     10.47%    100.00% # attempts to use FU when none available
system.cpu0.iq.fu_full::FloatMemRead                0      0.00%    100.00% # attempts to use FU when none available
system.cpu0.iq.fu_full::FloatMemWrite               2      0.00%    100.00% # attempts to use FU when none available
system.cpu0.iq.fu_full::IprAccess                   0      0.00%    100.00% # attempts to use FU when none available
system.cpu0.iq.fu_full::InstPrefetch                0      0.00%    100.00% # attempts to use FU when none available
system.cpu0.iq.int_alu_accesses             611921311                       # Number of integer alu accesses
system.cpu0.iq.int_inst_queue_reads        2294059856                       # Number of integer instruction queue reads
system.cpu0.iq.int_inst_queue_wakeup_accesses    603028917                       # Number of integer instruction queue wakeup accesses
system.cpu0.iq.int_inst_queue_writes        681536696                       # Number of integer instruction queue writes
system.cpu0.iq.iqInstsAdded                 625345327                       # Number of instructions added to the IQ (excludes non-spec)
system.cpu0.iq.iqInstsIssued                612627345                       # Number of instructions issued
system.cpu0.iq.iqNonSpecInstsAdded            6065921                       # Number of non-speculative instructions added to the IQ
system.cpu0.iq.iqSquashedInstsExamined       50118540                       # Number of squashed instructions iterated over during squash; mainly for profiling
system.cpu0.iq.iqSquashedInstsIssued            87046                       # Number of squashed instructions issued
system.cpu0.iq.iqSquashedNonSpecRemoved       3007426                       # Number of squashed non-spec instructions that were removed
system.cpu0.iq.iqSquashedOperandsExamined     29269263                       # Number of squashed operands that are examined and possibly removed from graph
system.cpu0.iq.issued_per_cycle::samples   1067385691                       # Number of insts issued each cycle
system.cpu0.iq.issued_per_cycle::mean        0.573951                       # Number of insts issued each cycle
system.cpu0.iq.issued_per_cycle::stdev       0.798465                       # Number of insts issued each cycle
system.cpu0.iq.issued_per_cycle::underflows            0      0.00%      0.00% # Number of insts issued each cycle
system.cpu0.iq.issued_per_cycle::0          617161983     57.82%     57.82% # Number of insts issued each cycle
system.cpu0.iq.issued_per_cycle::1          323073077     30.27%     88.09% # Number of insts issued each cycle
system.cpu0.iq.issued_per_cycle::2          100331167      9.40%     97.49% # Number of insts issued each cycle
system.cpu0.iq.issued_per_cycle::3           20622930      1.93%     99.42% # Number of insts issued each cycle
system.cpu0.iq.issued_per_cycle::4            4979084      0.47%     99.89% # Number of insts issued each cycle
system.cpu0.iq.issued_per_cycle::5             530848      0.05%     99.94% # Number of insts issued each cycle
system.cpu0.iq.issued_per_cycle::6             422910      0.04%     99.98% # Number of insts issued each cycle
system.cpu0.iq.issued_per_cycle::7             194428      0.02%     99.99% # Number of insts issued each cycle
system.cpu0.iq.issued_per_cycle::8              69264      0.01%    100.00% # Number of insts issued each cycle
system.cpu0.iq.issued_per_cycle::overflows            0      0.00%    100.00% # Number of insts issued each cycle
system.cpu0.iq.issued_per_cycle::min_value            0                       # Number of insts issued each cycle
system.cpu0.iq.issued_per_cycle::max_value            8                       # Number of insts issued each cycle
system.cpu0.iq.issued_per_cycle::total     1067385691                       # Number of insts issued each cycle
system.cpu0.iq.rate                          0.540020                       # Inst issue rate
system.cpu0.iq.vec_alu_accesses                     0                       # Number of vector alu accesses
system.cpu0.iq.vec_inst_queue_reads                 0                       # Number of vector instruction queue reads
system.cpu0.iq.vec_inst_queue_wakeup_accesses            0                       # Number of vector instruction queue wakeup accesses
system.cpu0.iq.vec_inst_queue_writes                0                       # Number of vector instruction queue writes
system.cpu0.itb.accesses                            0                       # DTB accesses
system.cpu0.itb.hits                                0                       # DTB hits
system.cpu0.itb.misses                              0                       # DTB misses
system.cpu0.itb.read_accesses                       0                       # DTB read accesses
system.cpu0.itb.read_hits                           0                       # DTB read hits
system.cpu0.itb.read_misses                         0                       # DTB read misses
system.cpu0.itb.write_accesses                      0                       # DTB write accesses
system.cpu0.itb.write_hits                          0                       # DTB write hits
system.cpu0.itb.write_misses                        0                       # DTB write misses
system.cpu0.memDep0.conflictingLoads         16651165                       # Number of conflicting loads.
system.cpu0.memDep0.conflictingStores         2838625                       # Number of conflicting stores.
system.cpu0.memDep0.insertedLoads           198122502                       # Number of loads inserted to the mem dependence unit.
system.cpu0.memDep0.insertedStores           76965794                       # Number of stores inserted to the mem dependence unit.
system.cpu0.misc_regfile_reads                    885                       # number of misc regfile reads
system.cpu0.misc_regfile_writes                    22                       # number of misc regfile writes
system.cpu0.numCycles                      1134453605                       # number of cpu cycles simulated
system.cpu0.numWorkItemsCompleted                   0                       # number of work items this cpu completed
system.cpu0.numWorkItemsStarted                     0                       # number of work items this cpu started
system.cpu0.quiesceCycles                    11699617                       # Total number of cycles that CPU has spent quiesced or waiting for an interrupt
system.cpu0.rename.BlockCycles              140840285                       # Number of cycles rename is blocking
system.cpu0.rename.CommittedMaps            370562720                       # Number of HB maps that are committed
system.cpu0.rename.IQFullEvents               6378180                       # Number of times rename has blocked due to IQ full
system.cpu0.rename.IdleCycles               468302722                       # Number of cycles rename is idle
system.cpu0.rename.LQFullEvents               4029742                       # Number of times rename has blocked due to LQ full
system.cpu0.rename.ROBFullEvents                 8435                       # Number of times rename has blocked due to ROB full
system.cpu0.rename.RenameLookups            781145214                       # Number of register rename lookups that rename has made
system.cpu0.rename.RenamedInsts             640252200                       # Number of instructions processed by rename
system.cpu0.rename.RenamedOperands          411271527                       # Number of destination operands rename has renamed
system.cpu0.rename.RunCycles                434113323                       # Number of cycles rename is running
system.cpu0.rename.SQFullEvents               6284816                       # Number of times rename has blocked due to SQ full
system.cpu0.rename.SquashCycles               6821555                       # Number of cycles rename is squashing
system.cpu0.rename.UnblockCycles             17219401                       # Number of cycles rename is unblocking
system.cpu0.rename.UndoneMaps                40708802                       # Number of HB maps that are undone due to squashing
system.cpu0.rename.fp_rename_lookups               44                       # Number of floating rename lookups
system.cpu0.rename.int_rename_lookups       781145170                       # Number of integer rename lookups
system.cpu0.rename.serializeStallCycles         88405                       # count of cycles rename stalled for serializing inst
system.cpu0.rename.serializingInsts              2850                       # count of serializing insts renamed
system.cpu0.rename.skidInsts                 13599240                       # count of insts added to the skid buffer
system.cpu0.rename.tempSerializingInsts          2804                       # count of temporary serializing insts renamed
system.cpu0.rob.rob_reads                  1673383581                       # The number of ROB reads
system.cpu0.rob.rob_writes                 1273541504                       # The number of ROB writes
system.cpu0.timesIdled                       14129368                       # Number of times that the entire CPU went into an idle state and unscheduled itself
system.cpu0.workload.numSyscalls                  852                       # Number of system calls
system.cpu1.branchPred.BTBCorrect                   0                       # Number of correct BTB predictions (this stat may not work properly.
system.cpu1.branchPred.BTBHitPct            80.362278                       # BTB Hit Percentage
system.cpu1.branchPred.BTBHits                4501452                       # Number of BTB hits
system.cpu1.branchPred.BTBLookups             5601449                       # Number of BTB lookups
system.cpu1.branchPred.RASInCorrect                 0                       # Number of incorrect RAS predictions.
system.cpu1.branchPred.condIncorrect           816710                       # Number of conditional branches incorrect
system.cpu1.branchPred.condPredicted          7739203                       # Number of conditional branches predicted
system.cpu1.branchPred.indirectHits            259315                       # Number of indirect target hits.
system.cpu1.branchPred.indirectLookups         399884                       # Number of indirect predictor lookups.
system.cpu1.branchPred.indirectMisses          140569                       # Number of indirect misses.
system.cpu1.branchPred.lookups                8709782                       # Number of BP lookups
system.cpu1.branchPred.usedRAS                      0                       # Number of times the RAS was used to get a target.
system.cpu1.branchPredindirectMispredicted         3239                       # Number of mispredicted indirect branches.
system.cpu1.commit.amos                       1017927                       # Number of atomic instructions committed
system.cpu1.commit.branchMispredicts           484692                       # The number of times a branch was mispredicted
system.cpu1.commit.branches                   7095599                       # Number of branches committed
system.cpu1.commit.bw_lim_events               822161                       # number cycles where commit BW limit reached
system.cpu1.commit.commitNonSpecStalls        3054447                       # The number of times commit has been forced to stall to communicate backwards
system.cpu1.commit.commitSquashedInsts        4703401                       # The number of squashed insts skipped by commit
system.cpu1.commit.committedInsts            32263374                       # Number of instructions committed
system.cpu1.commit.committedOps              33281478                       # Number of ops (including micro ops) committed
system.cpu1.commit.committed_per_cycle::samples    189728254                       # Number of insts commited each cycle
system.cpu1.commit.committed_per_cycle::mean     0.175417                       # Number of insts commited each cycle
system.cpu1.commit.committed_per_cycle::stdev     0.831115                       # Number of insts commited each cycle
system.cpu1.commit.committed_per_cycle::underflows            0      0.00%      0.00% # Number of insts commited each cycle
system.cpu1.commit.committed_per_cycle::0    175920982     92.72%     92.72% # Number of insts commited each cycle
system.cpu1.commit.committed_per_cycle::1      6920472      3.65%     96.37% # Number of insts commited each cycle
system.cpu1.commit.committed_per_cycle::2      2377223      1.25%     97.62% # Number of insts commited each cycle
system.cpu1.commit.committed_per_cycle::3      1999588      1.05%     98.68% # Number of insts commited each cycle
system.cpu1.commit.committed_per_cycle::4       500094      0.26%     98.94% # Number of insts commited each cycle
system.cpu1.commit.committed_per_cycle::5       170411      0.09%     99.03% # Number of insts commited each cycle
system.cpu1.commit.committed_per_cycle::6       943184      0.50%     99.53% # Number of insts commited each cycle
system.cpu1.commit.committed_per_cycle::7        74139      0.04%     99.57% # Number of insts commited each cycle
system.cpu1.commit.committed_per_cycle::8       822161      0.43%    100.00% # Number of insts commited each cycle
system.cpu1.commit.committed_per_cycle::overflows            0      0.00%    100.00% # Number of insts commited each cycle
system.cpu1.commit.committed_per_cycle::min_value            0                       # Number of insts commited each cycle
system.cpu1.commit.committed_per_cycle::max_value            8                       # Number of insts commited each cycle
system.cpu1.commit.committed_per_cycle::total    189728254                       # Number of insts commited each cycle
system.cpu1.commit.fp_insts                        12                       # Number of committed floating point instructions.
system.cpu1.commit.function_calls              320828                       # Number of function calls committed.
system.cpu1.commit.int_insts                 31048146                       # Number of committed integer instructions.
system.cpu1.commit.loads                      9248622                       # Number of loads committed
system.cpu1.commit.membars                    2035974                       # Number of memory barriers committed
system.cpu1.commit.op_class_0::No_OpClass      2035974      6.12%      6.12% # Class of committed instruction
system.cpu1.commit.op_class_0::IntAlu        19082907     57.34%     63.46% # Class of committed instruction
system.cpu1.commit.op_class_0::IntMult             42      0.00%     63.46% # Class of committed instruction
system.cpu1.commit.op_class_0::IntDiv              84      0.00%     63.46% # Class of committed instruction
system.cpu1.commit.op_class_0::FloatAdd             0      0.00%     63.46% # Class of committed instruction
system.cpu1.commit.op_class_0::FloatCmp             0      0.00%     63.46% # Class of committed instruction
system.cpu1.commit.op_class_0::FloatCvt             0      0.00%     63.46% # Class of committed instruction
system.cpu1.commit.op_class_0::FloatMult            0      0.00%     63.46% # Class of committed instruction
system.cpu1.commit.op_class_0::FloatMultAcc            0      0.00%     63.46% # Class of committed instruction
system.cpu1.commit.op_class_0::FloatDiv             0      0.00%     63.46% # Class of committed instruction
system.cpu1.commit.op_class_0::FloatMisc            0      0.00%     63.46% # Class of committed instruction
system.cpu1.commit.op_class_0::FloatSqrt            0      0.00%     63.46% # Class of committed instruction
system.cpu1.commit.op_class_0::SimdAdd              0      0.00%     63.46% # Class of committed instruction
system.cpu1.commit.op_class_0::SimdAddAcc            0      0.00%     63.46% # Class of committed instruction
system.cpu1.commit.op_class_0::SimdAlu              0      0.00%     63.46% # Class of committed instruction
system.cpu1.commit.op_class_0::SimdCmp              0      0.00%     63.46% # Class of committed instruction
system.cpu1.commit.op_class_0::SimdCvt              0      0.00%     63.46% # Class of committed instruction
system.cpu1.commit.op_class_0::SimdMisc             0      0.00%     63.46% # Class of committed instruction
system.cpu1.commit.op_class_0::SimdMult             0      0.00%     63.46% # Class of committed instruction
system.cpu1.commit.op_class_0::SimdMultAcc            0      0.00%     63.46% # Class of committed instruction
system.cpu1.commit.op_class_0::SimdShift            0      0.00%     63.46% # Class of committed instruction
system.cpu1.commit.op_class_0::SimdShiftAcc            0      0.00%     63.46% # Class of committed instruction
system.cpu1.commit.op_class_0::SimdDiv              0      0.00%     63.46% # Class of committed instruction
system.cpu1.commit.op_class_0::SimdSqrt             0      0.00%     63.46% # Class of committed instruction
system.cpu1.commit.op_class_0::SimdFloatAdd            0      0.00%     63.46% # Class of committed instruction
system.cpu1.commit.op_class_0::SimdFloatAlu            0      0.00%     63.46% # Class of committed instruction
system.cpu1.commit.op_class_0::SimdFloatCmp            0      0.00%     63.46% # Class of committed instruction
system.cpu1.commit.op_class_0::SimdFloatCvt            0      0.00%     63.46% # Class of committed instruction
system.cpu1.commit.op_class_0::SimdFloatDiv            0      0.00%     63.46% # Class of committed instruction
system.cpu1.commit.op_class_0::SimdFloatMisc            0      0.00%     63.46% # Class of committed instruction
system.cpu1.commit.op_class_0::SimdFloatMult            0      0.00%     63.46% # Class of committed instruction
system.cpu1.commit.op_class_0::SimdFloatMultAcc            0      0.00%     63.46% # Class of committed instruction
system.cpu1.commit.op_class_0::SimdFloatSqrt            0      0.00%     63.46% # Class of committed instruction
system.cpu1.commit.op_class_0::SimdReduceAdd            0      0.00%     63.46% # Class of committed instruction
system.cpu1.commit.op_class_0::SimdReduceAlu            0      0.00%     63.46% # Class of committed instruction
system.cpu1.commit.op_class_0::SimdReduceCmp            0      0.00%     63.46% # Class of committed instruction
system.cpu1.commit.op_class_0::SimdFloatReduceAdd            0      0.00%     63.46% # Class of committed instruction
system.cpu1.commit.op_class_0::SimdFloatReduceCmp            0      0.00%     63.46% # Class of committed instruction
system.cpu1.commit.op_class_0::SimdAes              0      0.00%     63.46% # Class of committed instruction
system.cpu1.commit.op_class_0::SimdAesMix            0      0.00%     63.46% # Class of committed instruction
system.cpu1.commit.op_class_0::SimdSha1Hash            0      0.00%     63.46% # Class of committed instruction
system.cpu1.commit.op_class_0::SimdSha1Hash2            0      0.00%     63.46% # Class of committed instruction
system.cpu1.commit.op_class_0::SimdSha256Hash            0      0.00%     63.46% # Class of committed instruction
system.cpu1.commit.op_class_0::SimdSha256Hash2            0      0.00%     63.46% # Class of committed instruction
system.cpu1.commit.op_class_0::SimdShaSigma2            0      0.00%     63.46% # Class of committed instruction
system.cpu1.commit.op_class_0::SimdShaSigma3            0      0.00%     63.46% # Class of committed instruction
system.cpu1.commit.op_class_0::SimdPredAlu            0      0.00%     63.46% # Class of committed instruction
system.cpu1.commit.op_class_0::MemRead       10266549     30.85%     94.30% # Class of committed instruction
system.cpu1.commit.op_class_0::MemWrite       1895910      5.70%    100.00% # Class of committed instruction
system.cpu1.commit.op_class_0::FloatMemRead            0      0.00%    100.00% # Class of committed instruction
system.cpu1.commit.op_class_0::FloatMemWrite           12      0.00%    100.00% # Class of committed instruction
system.cpu1.commit.op_class_0::IprAccess            0      0.00%    100.00% # Class of committed instruction
system.cpu1.commit.op_class_0::InstPrefetch            0      0.00%    100.00% # Class of committed instruction
system.cpu1.commit.op_class_0::total         33281478                       # Class of committed instruction
system.cpu1.commit.refs                      12162471                       # Number of memory references committed
system.cpu1.commit.swp_count                        0                       # Number of s/w prefetches committed
system.cpu1.commit.vec_insts                        0                       # Number of committed Vector instructions.
system.cpu1.committedInsts                   32263374                       # Number of Instructions Simulated
system.cpu1.committedOps                     33281478                       # Number of Ops (including micro ops) Simulated
system.cpu1.cpi                              5.913633                       # CPI: Cycles Per Instruction
system.cpu1.cpi_total                        5.913633                       # CPI: Total CPI of All Threads
system.cpu1.decode.BlockedCycles            169203738                       # Number of cycles decode is blocked
system.cpu1.decode.BranchMispred               335536                       # Number of times decode detected a branch misprediction
system.cpu1.decode.BranchResolved             4357042                       # Number of times decode resolved a branch
system.cpu1.decode.DecodedInsts              39705812                       # Number of instructions handled by decode
system.cpu1.decode.IdleCycles                 5950782                       # Number of cycles decode is idle
system.cpu1.decode.RunCycles                 12616641                       # Number of cycles decode is running
system.cpu1.decode.SquashCycles                484889                       # Number of cycles decode is squashing
system.cpu1.decode.SquashedInsts               613626                       # Number of squashed instructions handled by decode
system.cpu1.decode.UnblockCycles              2327153                       # Number of cycles decode is unblocking
system.cpu1.dtb.accesses                            0                       # DTB accesses
system.cpu1.dtb.hits                                0                       # DTB hits
system.cpu1.dtb.misses                              0                       # DTB misses
system.cpu1.dtb.read_accesses                       0                       # DTB read accesses
system.cpu1.dtb.read_hits                           0                       # DTB read hits
system.cpu1.dtb.read_misses                         0                       # DTB read misses
system.cpu1.dtb.write_accesses                      0                       # DTB write accesses
system.cpu1.dtb.write_hits                          0                       # DTB write hits
system.cpu1.dtb.write_misses                        0                       # DTB write misses
system.cpu1.fetch.Branches                    8709782                       # Number of branches that fetch encountered
system.cpu1.fetch.CacheLines                  5137263                       # Number of cache lines fetched
system.cpu1.fetch.Cycles                    184186121                       # Number of cycles fetch has run and was not squashing or blocked
system.cpu1.fetch.IcacheSquashes                56522                       # Number of outstanding Icache misses that were squashed
system.cpu1.fetch.Insts                      40467425                       # Number of instructions fetch has processed
system.cpu1.fetch.MiscStallCycles                  10                       # Number of cycles fetch has spent waiting on interrupts, or bad addresses, or out of MSHRs
system.cpu1.fetch.PendingTrapStallCycles           54                       # Number of stall cycles due to pending traps
system.cpu1.fetch.SquashCycles                1633830                       # Number of cycles fetch has spent squashing
system.cpu1.fetch.branchRate                 0.045650                       # Number of branch fetches per cycle
system.cpu1.fetch.icacheStallCycles           5580103                       # Number of cycles fetch is stalled on an Icache miss
system.cpu1.fetch.predictedBranches           4760767                       # Number of branches that fetch has predicted taken
system.cpu1.fetch.rate                       0.212100                       # Number of inst fetches per cycle
system.cpu1.fetch.rateDist::samples         190583203                       # Number of instructions fetched each cycle (Total)
system.cpu1.fetch.rateDist::mean             0.217679                       # Number of instructions fetched each cycle (Total)
system.cpu1.fetch.rateDist::stdev            0.661755                       # Number of instructions fetched each cycle (Total)
system.cpu1.fetch.rateDist::underflows              0      0.00%      0.00% # Number of instructions fetched each cycle (Total)
system.cpu1.fetch.rateDist::0               165948818     87.07%     87.07% # Number of instructions fetched each cycle (Total)
system.cpu1.fetch.rateDist::1                14269156      7.49%     94.56% # Number of instructions fetched each cycle (Total)
system.cpu1.fetch.rateDist::2                 5610423      2.94%     97.51% # Number of instructions fetched each cycle (Total)
system.cpu1.fetch.rateDist::3                 3452156      1.81%     99.32% # Number of instructions fetched each cycle (Total)
system.cpu1.fetch.rateDist::4                  877532      0.46%     99.78% # Number of instructions fetched each cycle (Total)
system.cpu1.fetch.rateDist::5                  421840      0.22%    100.00% # Number of instructions fetched each cycle (Total)
system.cpu1.fetch.rateDist::6                    2987      0.00%    100.00% # Number of instructions fetched each cycle (Total)
system.cpu1.fetch.rateDist::7                     148      0.00%    100.00% # Number of instructions fetched each cycle (Total)
system.cpu1.fetch.rateDist::8                     143      0.00%    100.00% # Number of instructions fetched each cycle (Total)
system.cpu1.fetch.rateDist::overflows               0      0.00%    100.00% # Number of instructions fetched each cycle (Total)
system.cpu1.fetch.rateDist::min_value               0                       # Number of instructions fetched each cycle (Total)
system.cpu1.fetch.rateDist::max_value               8                       # Number of instructions fetched each cycle (Total)
system.cpu1.fetch.rateDist::total           190583203                       # Number of instructions fetched each cycle (Total)
system.cpu1.fp_regfile_reads                       12                       # number of floating regfile reads
system.cpu1.idleCycles                         210556                       # Total number of cycles that the CPU has spent unscheduled due to idling
system.cpu1.iew.branchMispredicts              515363                       # Number of branch mispredicts detected at execute
system.cpu1.iew.exec_branches                 7674343                       # Number of branches executed
system.cpu1.iew.exec_nop                            0                       # number of nop insts executed
system.cpu1.iew.exec_rate                    0.190008                       # Inst execution rate
system.cpu1.iew.exec_refs                    12954918                       # number of memory reference insts executed
system.cpu1.iew.exec_stores                   2943736                       # Number of stores executed
system.cpu1.iew.exec_swp                            0                       # number of swp insts executed
system.cpu1.iew.iewBlockCycles              147223110                       # Number of cycles IEW is blocking
system.cpu1.iew.iewDispLoadInsts             10281848                       # Number of dispatched load instructions
system.cpu1.iew.iewDispNonSpecInsts           1018558                       # Number of dispatched non-speculative instructions
system.cpu1.iew.iewDispSquashedInsts           245963                       # Number of squashed instructions skipped by dispatch
system.cpu1.iew.iewDispStoreInsts             2975695                       # Number of dispatched store instructions
system.cpu1.iew.iewDispatchedInsts           37977609                       # Number of instructions dispatched to IQ
system.cpu1.iew.iewExecLoadInsts             10011182                       # Number of load instructions executed
system.cpu1.iew.iewExecSquashedInsts           647949                       # Number of squashed instructions skipped in execute
system.cpu1.iew.iewExecutedInsts             36252317                       # Number of executed instructions
system.cpu1.iew.iewIQFullEvents                723914                       # Number of times the IQ has become full, causing a stall
system.cpu1.iew.iewIdleCycles                       0                       # Number of cycles IEW is idle
system.cpu1.iew.iewLSQFullEvents              1357901                       # Number of times the LSQ has become full, causing a stall
system.cpu1.iew.iewSquashCycles                484889                       # Number of cycles IEW is squashing
system.cpu1.iew.iewUnblockCycles              3261418                       # Number of cycles IEW is unblocking
system.cpu1.iew.lsq.thread0.blockedLoads            0                       # Number of blocked loads due to partial load-store forwarding
system.cpu1.iew.lsq.thread0.cacheBlocked        15965                       # Number of times an access to memory failed due to the cache being blocked
system.cpu1.iew.lsq.thread0.forwLoads          155558                       # Number of loads that had data forwarded from stores
system.cpu1.iew.lsq.thread0.ignoredResponses         4554                       # Number of memory responses ignored because the instruction is squashed
system.cpu1.iew.lsq.thread0.invAddrLoads            0                       # Number of loads ignored due to an invalid address
system.cpu1.iew.lsq.thread0.invAddrSwpfs            0                       # Number of software prefetches ignored due to an invalid address
system.cpu1.iew.lsq.thread0.memOrderViolation          133                       # Number of memory ordering violations
system.cpu1.iew.lsq.thread0.rescheduledLoads          356                       # Number of loads that were rescheduled
system.cpu1.iew.lsq.thread0.squashedLoads      1033226                       # Number of loads squashed
system.cpu1.iew.lsq.thread0.squashedStores        61846                       # Number of stores squashed
system.cpu1.iew.memOrderViolationEvents           133                       # Number of memory order violations
system.cpu1.iew.predictedNotTakenIncorrect        91180                       # Number of branches that were predicted not taken incorrectly
system.cpu1.iew.predictedTakenIncorrect        424183                       # Number of branches that were predicted taken incorrectly
system.cpu1.iew.wb_consumers                 20876152                       # num instructions consuming a value
system.cpu1.iew.wb_count                     36009631                       # cumulative count of insts written-back
system.cpu1.iew.wb_fanout                    0.876276                       # average fanout of values written-back
system.cpu1.iew.wb_producers                 18293274                       # num instructions producing a value
system.cpu1.iew.wb_rate                      0.188736                       # insts written-back per cycle
system.cpu1.iew.wb_sent                      36018845                       # cumulative count of insts sent to commit
system.cpu1.int_regfile_reads                44580390                       # number of integer regfile reads
system.cpu1.int_regfile_writes               24577510                       # number of integer regfile writes
system.cpu1.ipc                              0.169101                       # IPC: Instructions Per Cycle
system.cpu1.ipc_total                        0.169101                       # IPC: Total IPC of All Threads
system.cpu1.iq.FU_type_0::No_OpClass          2036090      5.52%      5.52% # Type of FU issued
system.cpu1.iq.FU_type_0::IntAlu             21821328     59.14%     64.65% # Type of FU issued
system.cpu1.iq.FU_type_0::IntMult                  44      0.00%     64.65% # Type of FU issued
system.cpu1.iq.FU_type_0::IntDiv                   84      0.00%     64.65% # Type of FU issued
system.cpu1.iq.FU_type_0::FloatAdd                  0      0.00%     64.65% # Type of FU issued
system.cpu1.iq.FU_type_0::FloatCmp                  0      0.00%     64.65% # Type of FU issued
system.cpu1.iq.FU_type_0::FloatCvt                  0      0.00%     64.65% # Type of FU issued
system.cpu1.iq.FU_type_0::FloatMult                 0      0.00%     64.65% # Type of FU issued
system.cpu1.iq.FU_type_0::FloatMultAcc              0      0.00%     64.65% # Type of FU issued
system.cpu1.iq.FU_type_0::FloatDiv                  0      0.00%     64.65% # Type of FU issued
system.cpu1.iq.FU_type_0::FloatMisc                 0      0.00%     64.65% # Type of FU issued
system.cpu1.iq.FU_type_0::FloatSqrt                 0      0.00%     64.65% # Type of FU issued
system.cpu1.iq.FU_type_0::SimdAdd                   0      0.00%     64.65% # Type of FU issued
system.cpu1.iq.FU_type_0::SimdAddAcc                0      0.00%     64.65% # Type of FU issued
system.cpu1.iq.FU_type_0::SimdAlu                   0      0.00%     64.65% # Type of FU issued
system.cpu1.iq.FU_type_0::SimdCmp                   0      0.00%     64.65% # Type of FU issued
system.cpu1.iq.FU_type_0::SimdCvt                   0      0.00%     64.65% # Type of FU issued
system.cpu1.iq.FU_type_0::SimdMisc                  0      0.00%     64.65% # Type of FU issued
system.cpu1.iq.FU_type_0::SimdMult                  0      0.00%     64.65% # Type of FU issued
system.cpu1.iq.FU_type_0::SimdMultAcc               0      0.00%     64.65% # Type of FU issued
system.cpu1.iq.FU_type_0::SimdShift                 0      0.00%     64.65% # Type of FU issued
system.cpu1.iq.FU_type_0::SimdShiftAcc              0      0.00%     64.65% # Type of FU issued
system.cpu1.iq.FU_type_0::SimdDiv                   0      0.00%     64.65% # Type of FU issued
system.cpu1.iq.FU_type_0::SimdSqrt                  0      0.00%     64.65% # Type of FU issued
system.cpu1.iq.FU_type_0::SimdFloatAdd              0      0.00%     64.65% # Type of FU issued
system.cpu1.iq.FU_type_0::SimdFloatAlu              0      0.00%     64.65% # Type of FU issued
system.cpu1.iq.FU_type_0::SimdFloatCmp              0      0.00%     64.65% # Type of FU issued
system.cpu1.iq.FU_type_0::SimdFloatCvt              0      0.00%     64.65% # Type of FU issued
system.cpu1.iq.FU_type_0::SimdFloatDiv              0      0.00%     64.65% # Type of FU issued
system.cpu1.iq.FU_type_0::SimdFloatMisc             0      0.00%     64.65% # Type of FU issued
system.cpu1.iq.FU_type_0::SimdFloatMult             0      0.00%     64.65% # Type of FU issued
system.cpu1.iq.FU_type_0::SimdFloatMultAcc            0      0.00%     64.65% # Type of FU issued
system.cpu1.iq.FU_type_0::SimdFloatSqrt             0      0.00%     64.65% # Type of FU issued
system.cpu1.iq.FU_type_0::SimdReduceAdd             0      0.00%     64.65% # Type of FU issued
system.cpu1.iq.FU_type_0::SimdReduceAlu             0      0.00%     64.65% # Type of FU issued
system.cpu1.iq.FU_type_0::SimdReduceCmp             0      0.00%     64.65% # Type of FU issued
system.cpu1.iq.FU_type_0::SimdFloatReduceAdd            0      0.00%     64.65% # Type of FU issued
system.cpu1.iq.FU_type_0::SimdFloatReduceCmp            0      0.00%     64.65% # Type of FU issued
system.cpu1.iq.FU_type_0::SimdAes                   0      0.00%     64.65% # Type of FU issued
system.cpu1.iq.FU_type_0::SimdAesMix                0      0.00%     64.65% # Type of FU issued
system.cpu1.iq.FU_type_0::SimdSha1Hash              0      0.00%     64.65% # Type of FU issued
system.cpu1.iq.FU_type_0::SimdSha1Hash2             0      0.00%     64.65% # Type of FU issued
system.cpu1.iq.FU_type_0::SimdSha256Hash            0      0.00%     64.65% # Type of FU issued
system.cpu1.iq.FU_type_0::SimdSha256Hash2            0      0.00%     64.65% # Type of FU issued
system.cpu1.iq.FU_type_0::SimdShaSigma2             0      0.00%     64.65% # Type of FU issued
system.cpu1.iq.FU_type_0::SimdShaSigma3             0      0.00%     64.65% # Type of FU issued
system.cpu1.iq.FU_type_0::SimdPredAlu               0      0.00%     64.65% # Type of FU issued
system.cpu1.iq.FU_type_0::MemRead            11109636     30.11%     94.76% # Type of FU issued
system.cpu1.iq.FU_type_0::MemWrite            1933072      5.24%    100.00% # Type of FU issued
system.cpu1.iq.FU_type_0::FloatMemRead              0      0.00%    100.00% # Type of FU issued
system.cpu1.iq.FU_type_0::FloatMemWrite            12      0.00%    100.00% # Type of FU issued
system.cpu1.iq.FU_type_0::IprAccess                 0      0.00%    100.00% # Type of FU issued
system.cpu1.iq.FU_type_0::InstPrefetch              0      0.00%    100.00% # Type of FU issued
system.cpu1.iq.FU_type_0::total              36900266                       # Type of FU issued
system.cpu1.iq.fp_alu_accesses                     14                       # Number of floating point alu accesses
system.cpu1.iq.fp_inst_queue_reads                 26                       # Number of floating instruction queue reads
system.cpu1.iq.fp_inst_queue_wakeup_accesses           12                       # Number of floating instruction queue wakeup accesses
system.cpu1.iq.fp_inst_queue_writes                12                       # Number of floating instruction queue writes
system.cpu1.iq.fu_busy_cnt                    1096197                       # FU busy when requested
system.cpu1.iq.fu_busy_rate                  0.029707                       # FU busy rate (busy events/executed inst)
system.cpu1.iq.fu_full::No_OpClass                  0      0.00%      0.00% # attempts to use FU when none available
system.cpu1.iq.fu_full::IntAlu                 198544     18.11%     18.11% # attempts to use FU when none available
system.cpu1.iq.fu_full::IntMult                     0      0.00%     18.11% # attempts to use FU when none available
system.cpu1.iq.fu_full::IntDiv                      0      0.00%     18.11% # attempts to use FU when none available
system.cpu1.iq.fu_full::FloatAdd                    0      0.00%     18.11% # attempts to use FU when none available
system.cpu1.iq.fu_full::FloatCmp                    0      0.00%     18.11% # attempts to use FU when none available
system.cpu1.iq.fu_full::FloatCvt                    0      0.00%     18.11% # attempts to use FU when none available
system.cpu1.iq.fu_full::FloatMult                   0      0.00%     18.11% # attempts to use FU when none available
system.cpu1.iq.fu_full::FloatMultAcc                0      0.00%     18.11% # attempts to use FU when none available
system.cpu1.iq.fu_full::FloatDiv                    0      0.00%     18.11% # attempts to use FU when none available
system.cpu1.iq.fu_full::FloatMisc                   0      0.00%     18.11% # attempts to use FU when none available
system.cpu1.iq.fu_full::FloatSqrt                   0      0.00%     18.11% # attempts to use FU when none available
system.cpu1.iq.fu_full::SimdAdd                     0      0.00%     18.11% # attempts to use FU when none available
system.cpu1.iq.fu_full::SimdAddAcc                  0      0.00%     18.11% # attempts to use FU when none available
system.cpu1.iq.fu_full::SimdAlu                     0      0.00%     18.11% # attempts to use FU when none available
system.cpu1.iq.fu_full::SimdCmp                     0      0.00%     18.11% # attempts to use FU when none available
system.cpu1.iq.fu_full::SimdCvt                     0      0.00%     18.11% # attempts to use FU when none available
system.cpu1.iq.fu_full::SimdMisc                    0      0.00%     18.11% # attempts to use FU when none available
system.cpu1.iq.fu_full::SimdMult                    0      0.00%     18.11% # attempts to use FU when none available
system.cpu1.iq.fu_full::SimdMultAcc                 0      0.00%     18.11% # attempts to use FU when none available
system.cpu1.iq.fu_full::SimdShift                   0      0.00%     18.11% # attempts to use FU when none available
system.cpu1.iq.fu_full::SimdShiftAcc                0      0.00%     18.11% # attempts to use FU when none available
system.cpu1.iq.fu_full::SimdDiv                     0      0.00%     18.11% # attempts to use FU when none available
system.cpu1.iq.fu_full::SimdSqrt                    0      0.00%     18.11% # attempts to use FU when none available
system.cpu1.iq.fu_full::SimdFloatAdd                0      0.00%     18.11% # attempts to use FU when none available
system.cpu1.iq.fu_full::SimdFloatAlu                0      0.00%     18.11% # attempts to use FU when none available
system.cpu1.iq.fu_full::SimdFloatCmp                0      0.00%     18.11% # attempts to use FU when none available
system.cpu1.iq.fu_full::SimdFloatCvt                0      0.00%     18.11% # attempts to use FU when none available
system.cpu1.iq.fu_full::SimdFloatDiv                0      0.00%     18.11% # attempts to use FU when none available
system.cpu1.iq.fu_full::SimdFloatMisc               0      0.00%     18.11% # attempts to use FU when none available
system.cpu1.iq.fu_full::SimdFloatMult               0      0.00%     18.11% # attempts to use FU when none available
system.cpu1.iq.fu_full::SimdFloatMultAcc            0      0.00%     18.11% # attempts to use FU when none available
system.cpu1.iq.fu_full::SimdFloatSqrt               0      0.00%     18.11% # attempts to use FU when none available
system.cpu1.iq.fu_full::SimdReduceAdd               0      0.00%     18.11% # attempts to use FU when none available
system.cpu1.iq.fu_full::SimdReduceAlu               0      0.00%     18.11% # attempts to use FU when none available
system.cpu1.iq.fu_full::SimdReduceCmp               0      0.00%     18.11% # attempts to use FU when none available
system.cpu1.iq.fu_full::SimdFloatReduceAdd            0      0.00%     18.11% # attempts to use FU when none available
system.cpu1.iq.fu_full::SimdFloatReduceCmp            0      0.00%     18.11% # attempts to use FU when none available
system.cpu1.iq.fu_full::SimdAes                     0      0.00%     18.11% # attempts to use FU when none available
system.cpu1.iq.fu_full::SimdAesMix                  0      0.00%     18.11% # attempts to use FU when none available
system.cpu1.iq.fu_full::SimdSha1Hash                0      0.00%     18.11% # attempts to use FU when none available
system.cpu1.iq.fu_full::SimdSha1Hash2               0      0.00%     18.11% # attempts to use FU when none available
system.cpu1.iq.fu_full::SimdSha256Hash              0      0.00%     18.11% # attempts to use FU when none available
system.cpu1.iq.fu_full::SimdSha256Hash2             0      0.00%     18.11% # attempts to use FU when none available
system.cpu1.iq.fu_full::SimdShaSigma2               0      0.00%     18.11% # attempts to use FU when none available
system.cpu1.iq.fu_full::SimdShaSigma3               0      0.00%     18.11% # attempts to use FU when none available
system.cpu1.iq.fu_full::SimdPredAlu                 0      0.00%     18.11% # attempts to use FU when none available
system.cpu1.iq.fu_full::MemRead                802303     73.19%     91.30% # attempts to use FU when none available
[...]
system.cpu1.dcache.ReadReq_avg_miss_latency::.cpu1.data 68520.222645                       # average ReadReq miss latency
system.cpu1.dcache.ReadReq_avg_miss_latency::total 68520.222645                       # average ReadReq miss latency
system.cpu1.dcache.ReadReq_mshr_hits::.cpu1.data      1910612                       # number of ReadReq MSHR hits
system.cpu1.dcache.ReadReq_mshr_hits::total      1910612                       # number of ReadReq MSHR hits
system.cpu1.dcache.ReadReq_mshr_misses::.cpu1.data      1038656                       # number of ReadReq MSHR misses
system.cpu1.dcache.ReadReq_mshr_misses::total      1038656                       # number of ReadReq MSHR misses
system.cpu1.dcache.ReadReq_mshr_miss_latency::.cpu1.data  82246164500                       # number of ReadReq MSHR miss cycles
system.cpu1.dcache.ReadReq_mshr_miss_latency::total  82246164500                       # number of ReadReq MSHR miss cycles
system.cpu1.dcache.ReadReq_mshr_miss_rate::.cpu1.data     0.051548                       # mshr miss rate for ReadReq accesses
system.cpu1.dcache.ReadReq_mshr_miss_rate::total     0.051548                       # mshr miss rate for ReadReq accesses
system.cpu1.dcache.ReadReq_avg_mshr_miss_latency::.cpu1.data 79185.182101                       # average ReadReq mshr miss latency
system.cpu1.dcache.ReadReq_avg_mshr_miss_latency::total 79185.182101                       # average ReadReq mshr miss latency
system.cpu1.dcache.WriteReq_hits::.cpu1.data       452427                       # number of WriteReq hits
system.cpu1.dcache.WriteReq_hits::total        452427                       # number of WriteReq hits
system.cpu1.dcache.WriteReq_misses::.cpu1.data       373498                       # number of WriteReq misses
system.cpu1.dcache.WriteReq_misses::total       373498                       # number of WriteReq misses
system.cpu1.dcache.WriteReq_miss_latency::.cpu1.data  24284417990                       # number of WriteReq miss cycles
system.cpu1.dcache.WriteReq_miss_latency::total  24284417990                       # number of WriteReq miss cycles
system.cpu1.dcache.WriteReq_accesses::.cpu1.data       825925                       # number of WriteReq accesses(hits+misses)
system.cpu1.dcache.WriteReq_accesses::total       825925                       # number of WriteReq accesses(hits+misses)
system.cpu1.dcache.WriteReq_miss_rate::.cpu1.data     0.452218                       # miss rate for WriteReq accesses
system.cpu1.dcache.WriteReq_miss_rate::total     0.452218                       # miss rate for WriteReq accesses
system.cpu1.dcache.WriteReq_avg_miss_latency::.cpu1.data 65018.870222                       # average WriteReq miss latency
system.cpu1.dcache.WriteReq_avg_miss_latency::total 65018.870222                       # average WriteReq miss latency
system.cpu1.dcache.WriteReq_mshr_hits::.cpu1.data       334468                       # number of WriteReq MSHR hits
system.cpu1.dcache.WriteReq_mshr_hits::total       334468                       # number of WriteReq MSHR hits
system.cpu1.dcache.WriteReq_mshr_misses::.cpu1.data        39030                       # number of WriteReq MSHR misses
system.cpu1.dcache.WriteReq_mshr_misses::total        39030                       # number of WriteReq MSHR misses
system.cpu1.dcache.WriteReq_mshr_miss_latency::.cpu1.data   2309234491                       # number of WriteReq MSHR miss cycles
system.cpu1.dcache.WriteReq_mshr_miss_latency::total   2309234491                       # number of WriteReq MSHR miss cycles
system.cpu1.dcache.WriteReq_mshr_miss_rate::.cpu1.data     0.047256                       # mshr miss rate for WriteReq accesses
system.cpu1.dcache.WriteReq_mshr_miss_rate::total     0.047256                       # mshr miss rate for WriteReq accesses
system.cpu1.dcache.WriteReq_avg_mshr_miss_latency::.cpu1.data 59165.628773                       # average WriteReq mshr miss latency
system.cpu1.dcache.WriteReq_avg_mshr_miss_latency::total 59165.628773                       # average WriteReq mshr miss latency
system.cpu1.dcache.LoadLockedReq_hits::.cpu1.data       552878                       # number of LoadLockedReq hits
system.cpu1.dcache.LoadLockedReq_hits::total       552878                       # number of LoadLockedReq hits
system.cpu1.dcache.LoadLockedReq_misses::.cpu1.data         6280                       # number of LoadLockedReq misses
system.cpu1.dcache.LoadLockedReq_misses::total         6280                       # number of LoadLockedReq misses
system.cpu1.dcache.LoadLockedReq_miss_latency::.cpu1.data    168797500                       # number of LoadLockedReq miss cycles
system.cpu1.dcache.LoadLockedReq_miss_latency::total    168797500                       # number of LoadLockedReq miss cycles
system.cpu1.dcache.LoadLockedReq_accesses::.cpu1.data       559158                       # number of LoadLockedReq accesses(hits+misses)
system.cpu1.dcache.LoadLockedReq_accesses::total       559158                       # number of LoadLockedReq accesses(hits+misses)
system.cpu1.dcache.LoadLockedReq_miss_rate::.cpu1.data     0.011231                       # miss rate for LoadLockedReq accesses
system.cpu1.dcache.LoadLockedReq_miss_rate::total     0.011231                       # miss rate for LoadLockedReq accesses
system.cpu1.dcache.LoadLockedReq_avg_miss_latency::.cpu1.data 26878.582803                       # average LoadLockedReq miss latency
system.cpu1.dcache.LoadLockedReq_avg_miss_latency::total 26878.582803                       # average LoadLockedReq miss latency
system.cpu1.dcache.LoadLockedReq_mshr_hits::.cpu1.data          133                       # number of LoadLockedReq MSHR hits
system.cpu1.dcache.LoadLockedReq_mshr_hits::total          133                       # number of LoadLockedReq MSHR hits
system.cpu1.dcache.LoadLockedReq_mshr_misses::.cpu1.data         6147                       # number of LoadLockedReq MSHR misses
system.cpu1.dcache.LoadLockedReq_mshr_misses::total         6147                       # number of LoadLockedReq MSHR misses
system.cpu1.dcache.LoadLockedReq_mshr_miss_latency::.cpu1.data    151743000                       # number of LoadLockedReq MSHR miss cycles
system.cpu1.dcache.LoadLockedReq_mshr_miss_latency::total    151743000                       # number of LoadLockedReq MSHR miss cycles
system.cpu1.dcache.LoadLockedReq_mshr_miss_rate::.cpu1.data     0.010993                       # mshr miss rate for LoadLockedReq accesses
system.cpu1.dcache.LoadLockedReq_mshr_miss_rate::total     0.010993                       # mshr miss rate for LoadLockedReq accesses
system.cpu1.dcache.LoadLockedReq_avg_mshr_miss_latency::.cpu1.data 24685.700342                       # average LoadLockedReq mshr miss latency
system.cpu1.dcache.LoadLockedReq_avg_mshr_miss_latency::total 24685.700342                       # average LoadLockedReq mshr miss latency
system.cpu1.dcache.StoreCondReq_hits::.cpu1.data       558670                       # number of StoreCondReq hits
system.cpu1.dcache.StoreCondReq_hits::total       558670                       # number of StoreCondReq hits
system.cpu1.dcache.StoreCondReq_misses::.cpu1.data          364                       # number of StoreCondReq misses
system.cpu1.dcache.StoreCondReq_misses::total          364                       # number of StoreCondReq misses
system.cpu1.dcache.StoreCondReq_miss_latency::.cpu1.data      2941000                       # number of StoreCondReq miss cycles
system.cpu1.dcache.StoreCondReq_miss_latency::total      2941000                       # number of StoreCondReq miss cycles
system.cpu1.dcache.StoreCondReq_accesses::.cpu1.data       559034                       # number of StoreCondReq accesses(hits+misses)
system.cpu1.dcache.StoreCondReq_accesses::total       559034                       # number of StoreCondReq accesses(hits+misses)
system.cpu1.dcache.StoreCondReq_miss_rate::.cpu1.data     0.000651                       # miss rate for StoreCondReq accesses
system.cpu1.dcache.StoreCondReq_miss_rate::total     0.000651                       # miss rate for StoreCondReq accesses
system.cpu1.dcache.StoreCondReq_avg_miss_latency::.cpu1.data  8079.670330                       # average StoreCondReq miss latency
system.cpu1.dcache.StoreCondReq_avg_miss_latency::total  8079.670330                       # average StoreCondReq miss latency
system.cpu1.dcache.StoreCondReq_mshr_misses::.cpu1.data          363                       # number of StoreCondReq MSHR misses
system.cpu1.dcache.StoreCondReq_mshr_misses::total          363                       # number of StoreCondReq MSHR misses
system.cpu1.dcache.StoreCondReq_mshr_miss_latency::.cpu1.data      2578000                       # number of StoreCondReq MSHR miss cycles
system.cpu1.dcache.StoreCondReq_mshr_miss_latency::total      2578000                       # number of StoreCondReq MSHR miss cycles
system.cpu1.dcache.StoreCondReq_mshr_miss_rate::.cpu1.data     0.000649                       # mshr miss rate for StoreCondReq accesses
system.cpu1.dcache.StoreCondReq_mshr_miss_rate::total     0.000649                       # mshr miss rate for StoreCondReq accesses
system.cpu1.dcache.StoreCondReq_avg_mshr_miss_latency::.cpu1.data  7101.928375                       # average StoreCondReq mshr miss latency
system.cpu1.dcache.StoreCondReq_avg_mshr_miss_latency::total  7101.928375                       # average StoreCondReq mshr miss latency
system.cpu1.dcache.SwapReq_hits::.cpu1.data          514                       # number of SwapReq hits
system.cpu1.dcache.SwapReq_hits::total            514                       # number of SwapReq hits
system.cpu1.dcache.SwapReq_misses::.cpu1.data          561                       # number of SwapReq misses
system.cpu1.dcache.SwapReq_misses::total          561                       # number of SwapReq misses
system.cpu1.dcache.SwapReq_miss_latency::.cpu1.data      7265000                       # number of SwapReq miss cycles
system.cpu1.dcache.SwapReq_miss_latency::total      7265000                       # number of SwapReq miss cycles
system.cpu1.dcache.SwapReq_accesses::.cpu1.data         1075                       # number of SwapReq accesses(hits+misses)
system.cpu1.dcache.SwapReq_accesses::total         1075                       # number of SwapReq accesses(hits+misses)
system.cpu1.dcache.SwapReq_miss_rate::.cpu1.data     0.521860                       # miss rate for SwapReq accesses
system.cpu1.dcache.SwapReq_miss_rate::total     0.521860                       # miss rate for SwapReq accesses
system.cpu1.dcache.SwapReq_avg_miss_latency::.cpu1.data 12950.089127                       # average SwapReq miss latency
system.cpu1.dcache.SwapReq_avg_miss_latency::total 12950.089127                       # average SwapReq miss latency
system.cpu1.dcache.SwapReq_mshr_misses::.cpu1.data          561                       # number of SwapReq MSHR misses
system.cpu1.dcache.SwapReq_mshr_misses::total          561                       # number of SwapReq MSHR misses
system.cpu1.dcache.SwapReq_mshr_miss_latency::.cpu1.data      6704000                       # number of SwapReq MSHR miss cycles
system.cpu1.dcache.SwapReq_mshr_miss_latency::total      6704000                       # number of SwapReq MSHR miss cycles
system.cpu1.dcache.SwapReq_mshr_miss_rate::.cpu1.data     0.521860                       # mshr miss rate for SwapReq accesses
system.cpu1.dcache.SwapReq_mshr_miss_rate::total     0.521860                       # mshr miss rate for SwapReq accesses
system.cpu1.dcache.SwapReq_avg_mshr_miss_latency::.cpu1.data 11950.089127                       # average SwapReq mshr miss latency
system.cpu1.dcache.SwapReq_avg_mshr_miss_latency::total 11950.089127                       # average SwapReq mshr miss latency
system.cpu1.dcache.tags.pwrStateResidencyTicks::UNDEFINED 116166352500                       # Cumulative time (in ticks) in various power states
system.cpu1.dcache.tags.tagsinuse           31.661441                       # Cycle average of tags in use
system.cpu1.dcache.tags.total_refs           19851592                       # Total number of references to valid blocks.
system.cpu1.dcache.tags.sampled_refs          1084010                       # Sample count of references to valid blocks.
system.cpu1.dcache.tags.avg_refs            18.313108                       # Average number of references to valid blocks.
system.cpu1.dcache.tags.warmup_cycle                0                       # Cycle when the warmup percentage was hit.
system.cpu1.dcache.tags.occ_blocks::.cpu1.data    31.661441                       # Average occupied blocks per requestor
system.cpu1.dcache.tags.occ_percent::.cpu1.data     0.989420                       # Average percentage of cache occupancy
system.cpu1.dcache.tags.occ_percent::total     0.989420                       # Average percentage of cache occupancy
system.cpu1.dcache.tags.occ_task_id_blocks::1024           27                       # Occupied blocks per task id
system.cpu1.dcache.tags.age_task_id_blocks_1024::1            8                       # Occupied blocks per task id
system.cpu1.dcache.tags.age_task_id_blocks_1024::2           19                       # Occupied blocks per task id
system.cpu1.dcache.tags.occ_task_id_percent::1024     0.843750                       # Percentage of cache occupancy per task id
system.cpu1.dcache.tags.tag_accesses         45273021                       # Number of tag accesses
system.cpu1.dcache.tags.data_accesses        45273021                       # Number of data accesses
system.cpu_clk_domain.clock                       500                       # Clock period in ticks
system.tol2bus.pwrStateResidencyTicks::UNDEFINED 116166352500                       # Cumulative time (in ticks) in various power states
system.tol2bus.trans_dist::ReadResp           3011648                       # Transaction distribution
system.tol2bus.trans_dist::WritebackDirty       775908                       # Transaction distribution
system.tol2bus.trans_dist::WritebackClean      2690623                       # Transaction distribution
system.tol2bus.trans_dist::CleanEvict         7496282                       # Transaction distribution
system.tol2bus.trans_dist::HardPFReq          5930677                       # Transaction distribution
system.tol2bus.trans_dist::UpgradeReq            1151                       # Transaction distribution
system.tol2bus.trans_dist::SCUpgradeReq           870                       # Transaction distribution
system.tol2bus.trans_dist::UpgradeResp           2021                       # Transaction distribution
system.tol2bus.trans_dist::ReadExReq           101520                       # Transaction distribution
system.tol2bus.trans_dist::ReadExResp          101520                       # Transaction distribution
system.tol2bus.trans_dist::ReadCleanReq        246932                       # Transaction distribution
system.tol2bus.trans_dist::ReadSharedReq      2764716                       # Transaction distribution
system.tol2bus.trans_dist::InvalidateReq          250                       # Transaction distribution
system.tol2bus.trans_dist::InvalidateResp          250                       # Transaction distribution
system.tol2bus.pkt_count_system.cpu0.icache.mem_side::system.l2.cpu_side       725564                       # Packet count per connected master and slave (bytes)
system.tol2bus.pkt_count_system.cpu0.dcache.mem_side::system.l2.cpu_side      5346604                       # Packet count per connected master and slave (bytes)
system.tol2bus.pkt_count_system.cpu1.icache.mem_side::system.l2.cpu_side        15105                       # Packet count per connected master and slave (bytes)
system.tol2bus.pkt_count_system.cpu1.dcache.mem_side::system.l2.cpu_side      3250037                       # Packet count per connected master and slave (bytes)
system.tol2bus.pkt_count::total               9337310                       # Packet count per connected master and slave (bytes)
system.tol2bus.pkt_size_system.cpu0.icache.mem_side::system.l2.cpu_side     30954688                       # Cumulative packet size per connected master and slave (bytes)
system.tol2bus.pkt_size_system.cpu0.dcache.mem_side::system.l2.cpu_side    227983232                       # Cumulative packet size per connected master and slave (bytes)
system.tol2bus.pkt_size_system.cpu1.icache.mem_side::system.l2.cpu_side       644480                       # Cumulative packet size per connected master and slave (bytes)
system.tol2bus.pkt_size_system.cpu1.dcache.mem_side::system.l2.cpu_side    138566720                       # Cumulative packet size per connected master and slave (bytes)
system.tol2bus.pkt_size::total              398149120                       # Cumulative packet size per connected master and slave (bytes)
system.tol2bus.snoops                        13787058                       # Total snoops (count)
system.tol2bus.snoopTraffic                  22951616                       # Total snoop traffic (bytes)
system.tol2bus.snoop_fanout::samples         16898092                       # Request fanout histogram
system.tol2bus.snoop_fanout::mean            0.145311                       # Request fanout histogram
system.tol2bus.snoop_fanout::stdev           0.364679                       # Request fanout histogram
system.tol2bus.snoop_fanout::underflows             0      0.00%      0.00% # Request fanout histogram
system.tol2bus.snoop_fanout::0               14516928     85.91%     85.91% # Request fanout histogram
system.tol2bus.snoop_fanout::1                2306853     13.65%     99.56% # Request fanout histogram
system.tol2bus.snoop_fanout::2                  74311      0.44%    100.00% # Request fanout histogram
system.tol2bus.snoop_fanout::3                      0      0.00%    100.00% # Request fanout histogram
system.tol2bus.snoop_fanout::4                      0      0.00%    100.00% # Request fanout histogram
system.tol2bus.snoop_fanout::5                      0      0.00%    100.00% # Request fanout histogram
system.tol2bus.snoop_fanout::6                      0      0.00%    100.00% # Request fanout histogram
system.tol2bus.snoop_fanout::7                      0      0.00%    100.00% # Request fanout histogram
system.tol2bus.snoop_fanout::8                      0      0.00%    100.00% # Request fanout histogram
system.tol2bus.snoop_fanout::overflows              0      0.00%    100.00% # Request fanout histogram
system.tol2bus.snoop_fanout::min_value              0                       # Request fanout histogram
system.tol2bus.snoop_fanout::max_value              2                       # Request fanout histogram
system.tol2bus.snoop_fanout::total           16898092                       # Request fanout histogram
system.tol2bus.reqLayer0.occupancy         6223978997                       # Layer occupancy (ticks)
system.tol2bus.reqLayer0.utilization              5.4                       # Layer utilization (%)
system.tol2bus.respLayer1.occupancy        2675450848                       # Layer occupancy (ticks)
system.tol2bus.respLayer1.utilization             2.3                       # Layer utilization (%)
system.tol2bus.respLayer0.occupancy         362941807                       # Layer occupancy (ticks)
system.tol2bus.respLayer0.utilization             0.3                       # Layer utilization (%)
system.tol2bus.respLayer3.occupancy        1627344531                       # Layer occupancy (ticks)
system.tol2bus.respLayer3.utilization             1.4                       # Layer utilization (%)
system.tol2bus.respLayer2.occupancy           7576951                       # Layer occupancy (ticks)
system.tol2bus.respLayer2.utilization             0.0                       # Layer utilization (%)

---------- End Simulation Statistics   ----------
