
---------- Begin Simulation Statistics ----------
final_tick                               1993733721500                       # Number of ticks from beginning of simulation (restored from checkpoints and never reset)
host_inst_rate                                  98559                       # Simulator instruction rate (inst/s)
host_mem_usage                                 740100                       # Number of bytes of host memory used
host_op_rate                                    98877                       # Simulator op (including micro ops) rate (op/s)
host_seconds                                 23927.61                       # Real time elapsed on the host
host_tick_rate                               83323553                       # Simulator tick rate (ticks/s)
sim_freq                                 1000000000000                       # Frequency of simulated ticks
sim_insts                                  2358287984                       # Number of instructions simulated
sim_ops                                    2365898111                       # Number of ops (including micro ops) simulated
sim_seconds                                  1.993734                       # Number of seconds simulated
sim_ticks                                1993733721500                       # Number of ticks simulated
system.cpu0.branchPred.BTBCorrect                   0                       # Number of correct BTB predictions (this stat may not work properly.
system.cpu0.branchPred.BTBHitPct            86.573922                       # BTB Hit Percentage
system.cpu0.branchPred.BTBHits              303455921                       # Number of BTB hits
system.cpu0.branchPred.BTBLookups           350516546                       # Number of BTB lookups
system.cpu0.branchPred.RASInCorrect                 0                       # Number of incorrect RAS predictions.
system.cpu0.branchPred.condIncorrect         32437892                       # Number of conditional branches incorrect
system.cpu0.branchPred.condPredicted        458325622                       # Number of conditional branches predicted
system.cpu0.branchPred.indirectHits          40813728                       # Number of indirect target hits.
system.cpu0.branchPred.indirectLookups       41057236                       # Number of indirect predictor lookups.
system.cpu0.branchPred.indirectMisses          243508                       # Number of indirect misses.
system.cpu0.branchPred.lookups              595698491                       # Number of BP lookups
system.cpu0.branchPred.usedRAS                      0                       # Number of times the RAS was used to get a target.
system.cpu0.branchPredindirectMispredicted      3903269                       # Number of mispredicted indirect branches.
system.cpu0.commit.amos                       1901245                       # Number of atomic instructions committed
system.cpu0.commit.branchMispredicts         17807404                       # The number of times a branch was mispredicted
system.cpu0.commit.branches                 534988060                       # Number of branches committed
system.cpu0.commit.bw_lim_events             61317872                       # number cycles where commit BW limit reached
system.cpu0.commit.commitNonSpecStalls        5717960                       # The number of times commit has been forced to stall to communicate backwards
system.cpu0.commit.commitSquashedInsts      207215175                       # The number of squashed insts skipped by commit
system.cpu0.commit.committedInsts          2142334963                       # Number of instructions committed
system.cpu0.commit.committedOps            2144241497                       # Number of ops (including micro ops) committed
system.cpu0.commit.committed_per_cycle::samples   3491090287                       # Number of insts commited each cycle
system.cpu0.commit.committed_per_cycle::mean     0.614204                       # Number of insts commited each cycle
system.cpu0.commit.committed_per_cycle::stdev     1.382829                       # Number of insts commited each cycle
system.cpu0.commit.committed_per_cycle::underflows            0      0.00%      0.00% # Number of insts commited each cycle
system.cpu0.commit.committed_per_cycle::0   2459100894     70.44%     70.44% # Number of insts commited each cycle
system.cpu0.commit.committed_per_cycle::1    620739345     17.78%     88.22% # Number of insts commited each cycle
system.cpu0.commit.committed_per_cycle::2    135657523      3.89%     92.11% # Number of insts commited each cycle
system.cpu0.commit.committed_per_cycle::3    141828700      4.06%     96.17% # Number of insts commited each cycle
system.cpu0.commit.committed_per_cycle::4     44718106      1.28%     97.45% # Number of insts commited each cycle
system.cpu0.commit.committed_per_cycle::5     16456452      0.47%     97.92% # Number of insts commited each cycle
system.cpu0.commit.committed_per_cycle::6      3896419      0.11%     98.03% # Number of insts commited each cycle
system.cpu0.commit.committed_per_cycle::7      7374976      0.21%     98.24% # Number of insts commited each cycle
system.cpu0.commit.committed_per_cycle::8     61317872      1.76%    100.00% # Number of insts commited each cycle
system.cpu0.commit.committed_per_cycle::overflows            0      0.00%    100.00% # Number of insts commited each cycle
system.cpu0.commit.committed_per_cycle::min_value            0                       # Number of insts commited each cycle
system.cpu0.commit.committed_per_cycle::max_value            8                       # Number of insts commited each cycle
system.cpu0.commit.committed_per_cycle::total   3491090287                       # Number of insts commited each cycle
system.cpu0.commit.fp_insts                        50                       # Number of committed floating point instructions.
system.cpu0.commit.function_calls            43216073                       # Number of function calls committed.
system.cpu0.commit.int_insts               2071810546                       # Number of committed integer instructions.
system.cpu0.commit.loads                    668859544                       # Number of loads committed
system.cpu0.commit.membars                    3807645                       # Number of memory barriers committed
system.cpu0.commit.op_class_0::No_OpClass      3807651      0.18%      0.18% # Class of committed instruction
system.cpu0.commit.op_class_0::IntAlu      1188029903     55.41%     55.58% # Class of committed instruction
system.cpu0.commit.op_class_0::IntMult       18318163      0.85%     56.44% # Class of committed instruction
system.cpu0.commit.op_class_0::IntDiv         3801411      0.18%     56.61% # Class of committed instruction
system.cpu0.commit.op_class_0::FloatAdd             0      0.00%     56.61% # Class of committed instruction
system.cpu0.commit.op_class_0::FloatCmp             4      0.00%     56.61% # Class of committed instruction
system.cpu0.commit.op_class_0::FloatCvt            12      0.00%     56.61% # Class of committed instruction
system.cpu0.commit.op_class_0::FloatMult            0      0.00%     56.61% # Class of committed instruction
system.cpu0.commit.op_class_0::FloatMultAcc            0      0.00%     56.61% # Class of committed instruction
system.cpu0.commit.op_class_0::FloatDiv             2      0.00%     56.61% # Class of committed instruction
system.cpu0.commit.op_class_0::FloatMisc            4      0.00%     56.61% # Class of committed instruction
system.cpu0.commit.op_class_0::FloatSqrt            0      0.00%     56.61% # Class of committed instruction
system.cpu0.commit.op_class_0::SimdAdd              0      0.00%     56.61% # Class of committed instruction
system.cpu0.commit.op_class_0::SimdAddAcc            0      0.00%     56.61% # Class of committed instruction
system.cpu0.commit.op_class_0::SimdAlu              0      0.00%     56.61% # Class of committed instruction
system.cpu0.commit.op_class_0::SimdCmp              0      0.00%     56.61% # Class of committed instruction
system.cpu0.commit.op_class_0::SimdCvt              0      0.00%     56.61% # Class of committed instruction
system.cpu0.commit.op_class_0::SimdMisc             0      0.00%     56.61% # Class of committed instruction
system.cpu0.commit.op_class_0::SimdMult             0      0.00%     56.61% # Class of committed instruction
system.cpu0.commit.op_class_0::SimdMultAcc            0      0.00%     56.61% # Class of committed instruction
system.cpu0.commit.op_class_0::SimdShift            0      0.00%     56.61% # Class of committed instruction
system.cpu0.commit.op_class_0::SimdShiftAcc            0      0.00%     56.61% # Class of committed instruction
system.cpu0.commit.op_class_0::SimdDiv              0      0.00%     56.61% # Class of committed instruction
system.cpu0.commit.op_class_0::SimdSqrt             0      0.00%     56.61% # Class of committed instruction
system.cpu0.commit.op_class_0::SimdFloatAdd            0      0.00%     56.61% # Class of committed instruction
system.cpu0.commit.op_class_0::SimdFloatAlu            0      0.00%     56.61% # Class of committed instruction
system.cpu0.commit.op_class_0::SimdFloatCmp            0      0.00%     56.61% # Class of committed instruction
system.cpu0.commit.op_class_0::SimdFloatCvt            0      0.00%     56.61% # Class of committed instruction
system.cpu0.commit.op_class_0::SimdFloatDiv            0      0.00%     56.61% # Class of committed instruction
system.cpu0.commit.op_class_0::SimdFloatMisc            0      0.00%     56.61% # Class of committed instruction
system.cpu0.commit.op_class_0::SimdFloatMult            0      0.00%     56.61% # Class of committed instruction
system.cpu0.commit.op_class_0::SimdFloatMultAcc            0      0.00%     56.61% # Class of committed instruction
system.cpu0.commit.op_class_0::SimdFloatSqrt            0      0.00%     56.61% # Class of committed instruction
system.cpu0.commit.op_class_0::SimdReduceAdd            0      0.00%     56.61% # Class of committed instruction
system.cpu0.commit.op_class_0::SimdReduceAlu            0      0.00%     56.61% # Class of committed instruction
system.cpu0.commit.op_class_0::SimdReduceCmp            0      0.00%     56.61% # Class of committed instruction
system.cpu0.commit.op_class_0::SimdFloatReduceAdd            0      0.00%     56.61% # Class of committed instruction
system.cpu0.commit.op_class_0::SimdFloatReduceCmp            0      0.00%     56.61% # Class of committed instruction
system.cpu0.commit.op_class_0::SimdAes              0      0.00%     56.61% # Class of committed instruction
system.cpu0.commit.op_class_0::SimdAesMix            0      0.00%     56.61% # Class of committed instruction
system.cpu0.commit.op_class_0::SimdSha1Hash            0      0.00%     56.61% # Class of committed instruction
system.cpu0.commit.op_class_0::SimdSha1Hash2            0      0.00%     56.61% # Class of committed instruction
system.cpu0.commit.op_class_0::SimdSha256Hash            0      0.00%     56.61% # Class of committed instruction
system.cpu0.commit.op_class_0::SimdSha256Hash2            0      0.00%     56.61% # Class of committed instruction
system.cpu0.commit.op_class_0::SimdShaSigma2            0      0.00%     56.61% # Class of committed instruction
system.cpu0.commit.op_class_0::SimdShaSigma3            0      0.00%     56.61% # Class of committed instruction
system.cpu0.commit.op_class_0::SimdPredAlu            0      0.00%     56.61% # Class of committed instruction
system.cpu0.commit.op_class_0::MemRead      670760781     31.28%     87.90% # Class of committed instruction
system.cpu0.commit.op_class_0::MemWrite     259523538     12.10%    100.00% # Class of committed instruction
system.cpu0.commit.op_class_0::FloatMemRead            8      0.00%    100.00% # Class of committed instruction
system.cpu0.commit.op_class_0::FloatMemWrite           20      0.00%    100.00% # Class of committed instruction
system.cpu0.commit.op_class_0::IprAccess            0      0.00%    100.00% # Class of committed instruction
system.cpu0.commit.op_class_0::InstPrefetch            0      0.00%    100.00% # Class of committed instruction
system.cpu0.commit.op_class_0::total       2144241497                       # Class of committed instruction
system.cpu0.commit.refs                     930284347                       # Number of memory references committed
system.cpu0.commit.swp_count                        0                       # Number of s/w prefetches committed
system.cpu0.commit.vec_insts                        0                       # Number of committed Vector instructions.
system.cpu0.committedInsts                 2142334963                       # Number of Instructions Simulated
system.cpu0.committedOps                   2144241497                       # Number of Ops (including micro ops) Simulated
system.cpu0.cpi                              1.848207                       # CPI: Cycles Per Instruction
system.cpu0.cpi_total                        1.848207                       # CPI: Total CPI of All Threads
system.cpu0.decode.BlockedCycles            442823012                       # Number of cycles decode is blocked
system.cpu0.decode.BranchMispred             14636304                       # Number of times decode detected a branch misprediction
system.cpu0.decode.BranchResolved           292812268                       # Number of times decode resolved a branch
system.cpu0.decode.DecodedInsts            2392726977                       # Number of instructions handled by decode
system.cpu0.decode.IdleCycles              1398672736                       # Number of cycles decode is idle
system.cpu0.decode.RunCycles               1661563796                       # Number of cycles decode is running
system.cpu0.decode.SquashCycles              17823305                       # Number of cycles decode is squashing
system.cpu0.decode.SquashedInsts             23740292                       # Number of squashed instructions handled by decode
system.cpu0.decode.UnblockCycles              8474136                       # Number of cycles decode is unblocking
system.cpu0.dtb.accesses                            0                       # DTB accesses
system.cpu0.dtb.hits                                0                       # DTB hits
system.cpu0.dtb.misses                              0                       # DTB misses
system.cpu0.dtb.read_accesses                       0                       # DTB read accesses
system.cpu0.dtb.read_hits                           0                       # DTB read hits
system.cpu0.dtb.read_misses                         0                       # DTB read misses
system.cpu0.dtb.write_accesses                      0                       # DTB write accesses
system.cpu0.dtb.write_hits                          0                       # DTB write hits
system.cpu0.dtb.write_misses                        0                       # DTB write misses
system.cpu0.fetch.Branches                  595698491                       # Number of branches that fetch encountered
system.cpu0.fetch.CacheLines                405195819                       # Number of cache lines fetched
system.cpu0.fetch.Cycles                   2127217056                       # Number of cycles fetch has run and was not squashing or blocked
system.cpu0.fetch.IcacheSquashes             12248087                       # Number of outstanding Icache misses that were squashed
system.cpu0.fetch.IcacheWaitRetryStallCycles          117                       # Number of stall cycles due to full MSHR
system.cpu0.fetch.Insts                    2456784194                       # Number of instructions fetch has processed
system.cpu0.fetch.MiscStallCycles                 138                       # Number of cycles fetch has spent waiting on interrupts, or bad addresses, or out of MSHRs
system.cpu0.fetch.PendingTrapStallCycles           82                       # Number of stall cycles due to pending traps
system.cpu0.fetch.SquashCycles               64907608                       # Number of cycles fetch has spent squashing
system.cpu0.fetch.branchRate                 0.150449                       # Number of branch fetches per cycle
system.cpu0.fetch.icacheStallCycles        1369685788                       # Number of cycles fetch is stalled on an Icache miss
system.cpu0.fetch.predictedBranches         344269649                       # Number of branches that fetch has predicted taken
system.cpu0.fetch.rate                       0.620482                       # Number of inst fetches per cycle
system.cpu0.fetch.rateDist::samples        3529356985                       # Number of instructions fetched each cycle (Total)
system.cpu0.fetch.rateDist::mean             0.697531                       # Number of instructions fetched each cycle (Total)
system.cpu0.fetch.rateDist::stdev            0.923407                       # Number of instructions fetched each cycle (Total)
system.cpu0.fetch.rateDist::underflows              0      0.00%      0.00% # Number of instructions fetched each cycle (Total)
system.cpu0.fetch.rateDist::0              1796234519     50.89%     50.89% # Number of instructions fetched each cycle (Total)
system.cpu0.fetch.rateDist::1              1286472719     36.45%     87.34% # Number of instructions fetched each cycle (Total)
system.cpu0.fetch.rateDist::2               235827662      6.68%     94.03% # Number of instructions fetched each cycle (Total)
system.cpu0.fetch.rateDist::3               165336143      4.68%     98.71% # Number of instructions fetched each cycle (Total)
system.cpu0.fetch.rateDist::4                32917115      0.93%     99.64% # Number of instructions fetched each cycle (Total)
system.cpu0.fetch.rateDist::5                 6996975      0.20%     99.84% # Number of instructions fetched each cycle (Total)
system.cpu0.fetch.rateDist::6                 1763298      0.05%     99.89% # Number of instructions fetched each cycle (Total)
system.cpu0.fetch.rateDist::7                     469      0.00%     99.89% # Number of instructions fetched each cycle (Total)
system.cpu0.fetch.rateDist::8                 3808085      0.11%    100.00% # Number of instructions fetched each cycle (Total)
system.cpu0.fetch.rateDist::overflows               0      0.00%    100.00% # Number of instructions fetched each cycle (Total)
system.cpu0.fetch.rateDist::min_value               0                       # Number of instructions fetched each cycle (Total)
system.cpu0.fetch.rateDist::max_value               8                       # Number of instructions fetched each cycle (Total)
system.cpu0.fetch.rateDist::total          3529356985                       # Number of instructions fetched each cycle (Total)
system.cpu0.fp_regfile_reads                       44                       # number of floating regfile reads
system.cpu0.fp_regfile_writes                      24                       # number of floating regfile writes
system.cpu0.idleCycles                      430121613                       # Total number of cycles that the CPU has spent unscheduled due to idling
system.cpu0.iew.branchMispredicts            19224167                       # Number of branch mispredicts detected at execute
system.cpu0.iew.exec_branches               556837392                       # Number of branches executed
system.cpu0.iew.exec_nop                            0                       # number of nop insts executed
system.cpu0.iew.exec_rate                    0.584225                       # Inst execution rate
system.cpu0.iew.exec_refs                  1043046033                       # number of memory reference insts executed
system.cpu0.iew.exec_stores                 278018820                       # Number of stores executed
system.cpu0.iew.exec_swp                            0                       # number of swp insts executed
system.cpu0.iew.iewBlockCycles              344893495                       # Number of cycles IEW is blocking
system.cpu0.iew.iewDispLoadInsts            771347683                       # Number of dispatched load instructions
system.cpu0.iew.iewDispNonSpecInsts           3743943                       # Number of dispatched non-speculative instructions
system.cpu0.iew.iewDispSquashedInsts          8442178                       # Number of squashed instructions skipped by dispatch
system.cpu0.iew.iewDispStoreInsts           283673450                       # Number of dispatched store instructions
system.cpu0.iew.iewDispatchedInsts         2351420401                       # Number of instructions dispatched to IQ
system.cpu0.iew.iewExecLoadInsts            765027213                       # Number of load instructions executed
system.cpu0.iew.iewExecSquashedInsts         13756578                       # Number of squashed instructions skipped in execute
system.cpu0.iew.iewExecutedInsts           2313227337                       # Number of executed instructions
system.cpu0.iew.iewIQFullEvents               1831255                       # Number of times the IQ has become full, causing a stall
system.cpu0.iew.iewIdleCycles                       0                       # Number of cycles IEW is idle
system.cpu0.iew.iewLSQFullEvents              9902114                       # Number of times the LSQ has become full, causing a stall
system.cpu0.iew.iewSquashCycles              17823305                       # Number of cycles IEW is squashing
system.cpu0.iew.iewUnblockCycles             13861784                       # Number of cycles IEW is unblocking
system.cpu0.iew.lsq.thread0.blockedLoads            0                       # Number of blocked loads due to partial load-store forwarding
system.cpu0.iew.lsq.thread0.cacheBlocked       238634                       # Number of times an access to memory failed due to the cache being blocked
system.cpu0.iew.lsq.thread0.forwLoads        35770376                       # Number of loads that had data forwarded from stores
system.cpu0.iew.lsq.thread0.ignoredResponses       149857                       # Number of memory responses ignored because the instruction is squashed
system.cpu0.iew.lsq.thread0.invAddrLoads            0                       # Number of loads ignored due to an invalid address
system.cpu0.iew.lsq.thread0.invAddrSwpfs            0                       # Number of software prefetches ignored due to an invalid address
system.cpu0.iew.lsq.thread0.memOrderViolation        16171                       # Number of memory ordering violations
system.cpu0.iew.lsq.thread0.rescheduledLoads     11725367                       # Number of loads that were rescheduled
system.cpu0.iew.lsq.thread0.squashedLoads    102488139                       # Number of loads squashed
system.cpu0.iew.lsq.thread0.squashedStores     22248647                       # Number of stores squashed
system.cpu0.iew.memOrderViolationEvents         16171                       # Number of memory order violations
system.cpu0.iew.predictedNotTakenIncorrect      1895251                       # Number of branches that were predicted not taken incorrectly
system.cpu0.iew.predictedTakenIncorrect      17328916                       # Number of branches that were predicted taken incorrectly
system.cpu0.iew.wb_consumers               1015092343                       # num instructions consuming a value
system.cpu0.iew.wb_count                   2287220336                       # cumulative count of insts written-back
system.cpu0.iew.wb_fanout                    0.838270                       # average fanout of values written-back
system.cpu0.iew.wb_producers                850921713                       # num instructions producing a value
system.cpu0.iew.wb_rate                      0.577657                       # insts written-back per cycle
system.cpu0.iew.wb_sent                    2287491641                       # cumulative count of insts sent to commit
system.cpu0.int_regfile_reads              2815690390                       # number of integer regfile reads
system.cpu0.int_regfile_writes             1472662195                       # number of integer regfile writes
system.cpu0.ipc                              0.541065                       # IPC: Instructions Per Cycle
system.cpu0.ipc_total                        0.541065                       # IPC: Total IPC of All Threads
system.cpu0.iq.FU_type_0::No_OpClass          3810689      0.16%      0.16% # Type of FU issued
system.cpu0.iq.FU_type_0::IntAlu           1253100363     53.85%     54.01% # Type of FU issued
system.cpu0.iq.FU_type_0::IntMult            18650178      0.80%     54.82% # Type of FU issued
system.cpu0.iq.FU_type_0::IntDiv              3802473      0.16%     54.98% # Type of FU issued
system.cpu0.iq.FU_type_0::FloatAdd                  0      0.00%     54.98% # Type of FU issued
system.cpu0.iq.FU_type_0::FloatCmp                  4      0.00%     54.98% # Type of FU issued
system.cpu0.iq.FU_type_0::FloatCvt                 12      0.00%     54.98% # Type of FU issued
system.cpu0.iq.FU_type_0::FloatMult                 0      0.00%     54.98% # Type of FU issued
system.cpu0.iq.FU_type_0::FloatMultAcc              0      0.00%     54.98% # Type of FU issued
system.cpu0.iq.FU_type_0::FloatDiv                  2      0.00%     54.98% # Type of FU issued
system.cpu0.iq.FU_type_0::FloatMisc                 4      0.00%     54.98% # Type of FU issued
system.cpu0.iq.FU_type_0::FloatSqrt                 0      0.00%     54.98% # Type of FU issued
system.cpu0.iq.FU_type_0::SimdAdd                   0      0.00%     54.98% # Type of FU issued
system.cpu0.iq.FU_type_0::SimdAddAcc                0      0.00%     54.98% # Type of FU issued
system.cpu0.iq.FU_type_0::SimdAlu                   0      0.00%     54.98% # Type of FU issued
system.cpu0.iq.FU_type_0::SimdCmp                   0      0.00%     54.98% # Type of FU issued
system.cpu0.iq.FU_type_0::SimdCvt                   0      0.00%     54.98% # Type of FU issued
system.cpu0.iq.FU_type_0::SimdMisc                  0      0.00%     54.98% # Type of FU issued
system.cpu0.iq.FU_type_0::SimdMult                  0      0.00%     54.98% # Type of FU issued
system.cpu0.iq.FU_type_0::SimdMultAcc               0      0.00%     54.98% # Type of FU issued
system.cpu0.iq.FU_type_0::SimdShift                 0      0.00%     54.98% # Type of FU issued
system.cpu0.iq.FU_type_0::SimdShiftAcc              0      0.00%     54.98% # Type of FU issued
system.cpu0.iq.FU_type_0::SimdDiv                   0      0.00%     54.98% # Type of FU issued
system.cpu0.iq.FU_type_0::SimdSqrt                  0      0.00%     54.98% # Type of FU issued
system.cpu0.iq.FU_type_0::SimdFloatAdd              0      0.00%     54.98% # Type of FU issued
system.cpu0.iq.FU_type_0::SimdFloatAlu              0      0.00%     54.98% # Type of FU issued
system.cpu0.iq.FU_type_0::SimdFloatCmp              0      0.00%     54.98% # Type of FU issued
system.cpu0.iq.FU_type_0::SimdFloatCvt              0      0.00%     54.98% # Type of FU issued
system.cpu0.iq.FU_type_0::SimdFloatDiv              0      0.00%     54.98% # Type of FU issued
system.cpu0.iq.FU_type_0::SimdFloatMisc             0      0.00%     54.98% # Type of FU issued
system.cpu0.iq.FU_type_0::SimdFloatMult             0      0.00%     54.98% # Type of FU issued
system.cpu0.iq.FU_type_0::SimdFloatMultAcc            0      0.00%     54.98% # Type of FU issued
system.cpu0.iq.FU_type_0::SimdFloatSqrt             0      0.00%     54.98% # Type of FU issued
system.cpu0.iq.FU_type_0::SimdReduceAdd             0      0.00%     54.98% # Type of FU issued
system.cpu0.iq.FU_type_0::SimdReduceAlu             0      0.00%     54.98% # Type of FU issued
system.cpu0.iq.FU_type_0::SimdReduceCmp             0      0.00%     54.98% # Type of FU issued
system.cpu0.iq.FU_type_0::SimdFloatReduceAdd            0      0.00%     54.98% # Type of FU issued
system.cpu0.iq.FU_type_0::SimdFloatReduceCmp            0      0.00%     54.98% # Type of FU issued
system.cpu0.iq.FU_type_0::SimdAes                   0      0.00%     54.98% # Type of FU issued
system.cpu0.iq.FU_type_0::SimdAesMix                0      0.00%     54.98% # Type of FU issued
system.cpu0.iq.FU_type_0::SimdSha1Hash              0      0.00%     54.98% # Type of FU issued
system.cpu0.iq.FU_type_0::SimdSha1Hash2             0      0.00%     54.98% # Type of FU issued
system.cpu0.iq.FU_type_0::SimdSha256Hash            0      0.00%     54.98% # Type of FU issued
system.cpu0.iq.FU_type_0::SimdSha256Hash2            0      0.00%     54.98% # Type of FU issued
system.cpu0.iq.FU_type_0::SimdShaSigma2             0      0.00%     54.98% # Type of FU issued
system.cpu0.iq.FU_type_0::SimdShaSigma3             0      0.00%     54.98% # Type of FU issued
system.cpu0.iq.FU_type_0::SimdPredAlu               0      0.00%     54.98% # Type of FU issued
system.cpu0.iq.FU_type_0::MemRead           770996473     33.13%     88.11% # Type of FU issued
system.cpu0.iq.FU_type_0::MemWrite          276623687     11.89%    100.00% # Type of FU issued
system.cpu0.iq.FU_type_0::FloatMemRead             10      0.00%    100.00% # Type of FU issued
system.cpu0.iq.FU_type_0::FloatMemWrite            20      0.00%    100.00% # Type of FU issued
system.cpu0.iq.FU_type_0::IprAccess                 0      0.00%    100.00% # Type of FU issued
system.cpu0.iq.FU_type_0::InstPrefetch              0      0.00%    100.00% # Type of FU issued
system.cpu0.iq.FU_type_0::total            2326983915                       # Type of FU issued
system.cpu0.iq.fp_alu_accesses                     56                       # Number of floating point alu accesses
system.cpu0.iq.fp_inst_queue_reads                108                       # Number of floating instruction queue reads
system.cpu0.iq.fp_inst_queue_wakeup_accesses           52                       # Number of floating instruction queue wakeup accesses
system.cpu0.iq.fp_inst_queue_writes                80                       # Number of floating instruction queue writes
system.cpu0.iq.fu_busy_cnt                    2870359                       # FU busy when requested
system.cpu0.iq.fu_busy_rate                  0.001234                       # FU busy rate (busy events/executed inst)
system.cpu0.iq.fu_full::No_OpClass                  0      0.00%      0.00% # attempts to use FU when none available
system.cpu0.iq.fu_full::IntAlu                 508611     17.72%     17.72% # attempts to use FU when none available
system.cpu0.iq.fu_full::IntMult                    14      0.00%     17.72% # attempts to use FU when none available
system.cpu0.iq.fu_full::IntDiv                      0      0.00%     17.72% # attempts to use FU when none available
system.cpu0.iq.fu_full::FloatAdd                    0      0.00%     17.72% # attempts to use FU when none available
system.cpu0.iq.fu_full::FloatCmp                    0      0.00%     17.72% # attempts to use FU when none available
system.cpu0.iq.fu_full::FloatCvt                    0      0.00%     17.72% # attempts to use FU when none available
system.cpu0.iq.fu_full::FloatMult                   0      0.00%     17.72% # attempts to use FU when none available
system.cpu0.iq.fu_full::FloatMultAcc                0      0.00%     17.72% # attempts to use FU when none available
system.cpu0.iq.fu_full::FloatDiv                    0      0.00%     17.72% # attempts to use FU when none available
system.cpu0.iq.fu_full::FloatMisc                   0      0.00%     17.72% # attempts to use FU when none available
system.cpu0.iq.fu_full::FloatSqrt                   0      0.00%     17.72% # attempts to use FU when none available
system.cpu0.iq.fu_full::SimdAdd                     0      0.00%     17.72% # attempts to use FU when none available
system.cpu0.iq.fu_full::SimdAddAcc                  0      0.00%     17.72% # attempts to use FU when none available
system.cpu0.iq.fu_full::SimdAlu                     0      0.00%     17.72% # attempts to use FU when none available
system.cpu0.iq.fu_full::SimdCmp                     0      0.00%     17.72% # attempts to use FU when none available
system.cpu0.iq.fu_full::SimdCvt                     0      0.00%     17.72% # attempts to use FU when none available
system.cpu0.iq.fu_full::SimdMisc                    0      0.00%     17.72% # attempts to use FU when none available
system.cpu0.iq.fu_full::SimdMult                    0      0.00%     17.72% # attempts to use FU when none available
system.cpu0.iq.fu_full::SimdMultAcc                 0      0.00%     17.72% # attempts to use FU when none available
system.cpu0.iq.fu_full::SimdShift                   0      0.00%     17.72% # attempts to use FU when none available
system.cpu0.iq.fu_full::SimdShiftAcc                0      0.00%     17.72% # attempts to use FU when none available
system.cpu0.iq.fu_full::SimdDiv                     0      0.00%     17.72% # attempts to use FU when none available
system.cpu0.iq.fu_full::SimdSqrt                    0      0.00%     17.72% # attempts to use FU when none available
system.cpu0.iq.fu_full::SimdFloatAdd                0      0.00%     17.72% # attempts to use FU when none available
system.cpu0.iq.fu_full::SimdFloatAlu                0      0.00%     17.72% # attempts to use FU when none available
system.cpu0.iq.fu_full::SimdFloatCmp                0      0.00%     17.72% # attempts to use FU when none available
system.cpu0.iq.fu_full::SimdFloatCvt                0      0.00%     17.72% # attempts to use FU when none available
system.cpu0.iq.fu_full::SimdFloatDiv                0      0.00%     17.72% # attempts to use FU when none available
system.cpu0.iq.fu_full::SimdFloatMisc               0      0.00%     17.72% # attempts to use FU when none available
system.cpu0.iq.fu_full::SimdFloatMult               0      0.00%     17.72% # attempts to use FU when none available
system.cpu0.iq.fu_full::SimdFloatMultAcc            0      0.00%     17.72% # attempts to use FU when none available
system.cpu0.iq.fu_full::SimdFloatSqrt               0      0.00%     17.72% # attempts to use FU when none available
system.cpu0.iq.fu_full::SimdReduceAdd               0      0.00%     17.72% # attempts to use FU when none available
system.cpu0.iq.fu_full::SimdReduceAlu               0      0.00%     17.72% # attempts to use FU when none available
system.cpu0.iq.fu_full::SimdReduceCmp               0      0.00%     17.72% # attempts to use FU when none available
system.cpu0.iq.fu_full::SimdFloatReduceAdd            0      0.00%     17.72% # attempts to use FU when none available
system.cpu0.iq.fu_full::SimdFloatReduceCmp            0      0.00%     17.72% # attempts to use FU when none available
system.cpu0.iq.fu_full::SimdAes                     0      0.00%     17.72% # attempts to use FU when none available
system.cpu0.iq.fu_full::SimdAesMix                  0      0.00%     17.72% # attempts to use FU when none available
system.cpu0.iq.fu_full::SimdSha1Hash                0      0.00%     17.72% # attempts to use FU when none available
system.cpu0.iq.fu_full::SimdSha1Hash2               0      0.00%     17.72% # attempts to use FU when none available
system.cpu0.iq.fu_full::SimdSha256Hash              0      0.00%     17.72% # attempts to use FU when none available
system.cpu0.iq.fu_full::SimdSha256Hash2             0      0.00%     17.72% # attempts to use FU when none available
system.cpu0.iq.fu_full::SimdShaSigma2               0      0.00%     17.72% # attempts to use FU when none available
system.cpu0.iq.fu_full::SimdShaSigma3               0      0.00%     17.72% # attempts to use FU when none available
system.cpu0.iq.fu_full::SimdPredAlu                 0      0.00%     17.72% # attempts to use FU when none available
system.cpu0.iq.fu_full::MemRead               1894922     66.02%     83.74% # attempts to use FU when none available
system.cpu0.iq.fu_full::MemWrite               466808     16.26%    100.00% # attempts to use FU when none available
system.cpu0.iq.fu_full::FloatMemRead                0      0.00%    100.00% # attempts to use FU when none available
system.cpu0.iq.fu_full::FloatMemWrite               4      0.00%    100.00% # attempts to use FU when none available
system.cpu0.iq.fu_full::IprAccess                   0      0.00%    100.00% # attempts to use FU when none available
system.cpu0.iq.fu_full::InstPrefetch                0      0.00%    100.00% # attempts to use FU when none available
system.cpu0.iq.int_alu_accesses            2326043529                       # Number of integer alu accesses
system.cpu0.iq.int_inst_queue_reads        8186373511                       # Number of integer instruction queue reads
system.cpu0.iq.int_inst_queue_wakeup_accesses   2287220284                       # Number of integer instruction queue wakeup accesses
system.cpu0.iq.int_inst_queue_writes       2558613970                       # Number of integer instruction queue writes
system.cpu0.iq.iqInstsAdded                2340201749                       # Number of instructions added to the IQ (excludes non-spec)
system.cpu0.iq.iqInstsIssued               2326983915                       # Number of instructions issued
system.cpu0.iq.iqNonSpecInstsAdded           11218652                       # Number of non-speculative instructions added to the IQ
system.cpu0.iq.iqSquashedInstsExamined      207178901                       # Number of squashed instructions iterated over during squash; mainly for profiling
system.cpu0.iq.iqSquashedInstsIssued           178445                       # Number of squashed instructions issued
system.cpu0.iq.iqSquashedNonSpecRemoved       5500692                       # Number of squashed non-spec instructions that were removed
system.cpu0.iq.iqSquashedOperandsExamined     60469920                       # Number of squashed operands that are examined and possibly removed from graph
system.cpu0.iq.issued_per_cycle::samples   3529356985                       # Number of insts issued each cycle
system.cpu0.iq.issued_per_cycle::mean        0.659322                       # Number of insts issued each cycle
system.cpu0.iq.issued_per_cycle::stdev       0.855761                       # Number of insts issued each cycle
system.cpu0.iq.issued_per_cycle::underflows            0      0.00%      0.00% # Number of insts issued each cycle
system.cpu0.iq.issued_per_cycle::0         1895408050     53.70%     53.70% # Number of insts issued each cycle
system.cpu0.iq.issued_per_cycle::1         1107800328     31.39%     85.09% # Number of insts issued each cycle
system.cpu0.iq.issued_per_cycle::2          386016810     10.94%     96.03% # Number of insts issued each cycle
system.cpu0.iq.issued_per_cycle::3          119068440      3.37%     99.40% # Number of insts issued each cycle
system.cpu0.iq.issued_per_cycle::4           17959672      0.51%     99.91% # Number of insts issued each cycle
system.cpu0.iq.issued_per_cycle::5            1277591      0.04%     99.95% # Number of insts issued each cycle
system.cpu0.iq.issued_per_cycle::6            1294573      0.04%     99.98% # Number of insts issued each cycle
system.cpu0.iq.issued_per_cycle::7             301602      0.01%     99.99% # Number of insts issued each cycle
system.cpu0.iq.issued_per_cycle::8             229919      0.01%    100.00% # Number of insts issued each cycle
system.cpu0.iq.issued_per_cycle::overflows            0      0.00%    100.00% # Number of insts issued each cycle
system.cpu0.iq.issued_per_cycle::min_value            0                       # Number of insts issued each cycle
system.cpu0.iq.issued_per_cycle::max_value            8                       # Number of insts issued each cycle
system.cpu0.iq.issued_per_cycle::total     3529356985                       # Number of insts issued each cycle
system.cpu0.iq.rate                          0.587700                       # Inst issue rate
system.cpu0.iq.vec_alu_accesses                     0                       # Number of vector alu accesses
system.cpu0.iq.vec_inst_queue_reads                 0                       # Number of vector instruction queue reads
system.cpu0.iq.vec_inst_queue_wakeup_accesses            0                       # Number of vector instruction queue wakeup accesses
system.cpu0.iq.vec_inst_queue_writes                0                       # Number of vector instruction queue writes
system.cpu0.itb.accesses                            0                       # DTB accesses
system.cpu0.itb.hits                                0                       # DTB hits
system.cpu0.itb.misses                              0                       # DTB misses
system.cpu0.itb.read_accesses                       0                       # DTB read accesses
system.cpu0.itb.read_hits                           0                       # DTB read hits
system.cpu0.itb.read_misses                         0                       # DTB read misses
system.cpu0.itb.write_accesses                      0                       # DTB write accesses
system.cpu0.itb.write_hits                          0                       # DTB write hits
system.cpu0.itb.write_misses                        0                       # DTB write misses
system.cpu0.memDep0.conflictingLoads         34648548                       # Number of conflicting loads.
system.cpu0.memDep0.conflictingStores         5742779                       # Number of conflicting stores.
system.cpu0.memDep0.insertedLoads           771347683                       # Number of loads inserted to the mem dependence unit.
system.cpu0.memDep0.insertedStores          283673450                       # Number of stores inserted to the mem dependence unit.
system.cpu0.misc_regfile_reads                   3052                       # number of misc regfile reads
system.cpu0.misc_regfile_writes                    22                       # number of misc regfile writes
system.cpu0.numCycles                      3959478598                       # number of cpu cycles simulated
system.cpu0.numWorkItemsCompleted                   0                       # number of work items this cpu completed
system.cpu0.numWorkItemsStarted                     0                       # number of work items this cpu started
system.cpu0.quiesceCycles                    27988894                       # Total number of cycles that CPU has spent quiesced or waiting for an interrupt
system.cpu0.rename.BlockCycles              371441139                       # Number of cycles rename is blocking
system.cpu0.rename.CommittedMaps           1365600615                       # Number of HB maps that are committed
system.cpu0.rename.IQFullEvents              12417573                       # Number of times rename has blocked due to IQ full
system.cpu0.rename.IdleCycles              1415181973                       # Number of cycles rename is idle
system.cpu0.rename.LQFullEvents              26169217                       # Number of times rename has blocked due to LQ full
system.cpu0.rename.ROBFullEvents                63817                       # Number of times rename has blocked due to ROB full
system.cpu0.rename.RenameLookups           2893240838                       # Number of register rename lookups that rename has made
system.cpu0.rename.RenamedInsts            2380909785                       # Number of instructions processed by rename
system.cpu0.rename.RenamedOperands         1545409144                       # Number of destination operands rename has renamed
system.cpu0.rename.RunCycles               1651730991                       # Number of cycles rename is running
system.cpu0.rename.SQFullEvents              33709017                       # Number of times rename has blocked due to SQ full
system.cpu0.rename.SquashCycles              17823305                       # Number of cycles rename is squashing
system.cpu0.rename.UnblockCycles             72935400                       # Number of cycles rename is unblocking
system.cpu0.rename.UndoneMaps               179808525                       # Number of HB maps that are undone due to squashing
system.cpu0.rename.fp_rename_lookups               44                       # Number of floating rename lookups
system.cpu0.rename.int_rename_lookups      2893240794                       # Number of integer rename lookups
system.cpu0.rename.serializeStallCycles        244177                       # count of cycles rename stalled for serializing inst
system.cpu0.rename.serializingInsts              9196                       # count of serializing insts renamed
system.cpu0.rename.skidInsts                 27946086                       # count of insts added to the skid buffer
system.cpu0.rename.tempSerializingInsts          9183                       # count of temporary serializing insts renamed
system.cpu0.rob.rob_reads                  5781190035                       # The number of ROB reads
system.cpu0.rob.rob_writes                 4741209248                       # The number of ROB writes
system.cpu0.timesIdled                       45729898                       # Number of times that the entire CPU went into an idle state and unscheduled itself
system.cpu0.workload.numSyscalls                 3019                       # Number of system calls
system.cpu1.branchPred.BTBCorrect                   0                       # Number of correct BTB predictions (this stat may not work properly.
system.cpu1.branchPred.BTBHitPct            85.703102                       # BTB Hit Percentage
system.cpu1.branchPred.BTBHits               14107112                       # Number of BTB hits
system.cpu1.branchPred.BTBLookups            16460445                       # Number of BTB lookups
system.cpu1.branchPred.RASInCorrect                 0                       # Number of incorrect RAS predictions.
system.cpu1.branchPred.condIncorrect          1720388                       # Number of conditional branches incorrect
system.cpu1.branchPred.condPredicted         22744665                       # Number of conditional branches predicted
system.cpu1.branchPred.indirectHits            672525                       # Number of indirect target hits.
system.cpu1.branchPred.indirectLookups         683474                       # Number of indirect predictor lookups.
system.cpu1.branchPred.indirectMisses           10949                       # Number of indirect misses.
system.cpu1.branchPred.lookups               25996222                       # Number of BP lookups
system.cpu1.branchPred.usedRAS                      0                       # Number of times the RAS was used to get a target.
system.cpu1.branchPredindirectMispredicted        60018                       # Number of mispredicted indirect branches.
system.cpu1.commit.amos                       1900999                       # Number of atomic instructions committed
system.cpu1.commit.branchMispredicts          1449817                       # The number of times a branch was mispredicted
system.cpu1.commit.branches                  20324766                       # Number of branches committed
system.cpu1.commit.bw_lim_events              1899608                       # number cycles where commit BW limit reached
system.cpu1.commit.commitNonSpecStalls        5703729                       # The number of times commit has been forced to stall to communicate backwards
system.cpu1.commit.commitSquashedInsts       12611156                       # The number of squashed insts skipped by commit
system.cpu1.commit.committedInsts            84591322                       # Number of instructions committed
system.cpu1.commit.committedOps              86492539                       # Number of ops (including micro ops) committed
system.cpu1.commit.committed_per_cycle::samples    482032820                       # Number of insts commited each cycle
system.cpu1.commit.committed_per_cycle::mean     0.179433                       # Number of insts commited each cycle
system.cpu1.commit.committed_per_cycle::stdev     0.818698                       # Number of insts commited each cycle
system.cpu1.commit.committed_per_cycle::underflows            0      0.00%      0.00% # Number of insts commited each cycle
system.cpu1.commit.committed_per_cycle::0    445350735     92.39%     92.39% # Number of insts commited each cycle
system.cpu1.commit.committed_per_cycle::1     17964593      3.73%     96.12% # Number of insts commited each cycle
system.cpu1.commit.committed_per_cycle::2      6366781      1.32%     97.44% # Number of insts commited each cycle
system.cpu1.commit.committed_per_cycle::3      6059212      1.26%     98.69% # Number of insts commited each cycle
system.cpu1.commit.committed_per_cycle::4      1839452      0.38%     99.08% # Number of insts commited each cycle
system.cpu1.commit.committed_per_cycle::5       517450      0.11%     99.18% # Number of insts commited each cycle
system.cpu1.commit.committed_per_cycle::6      1770097      0.37%     99.55% # Number of insts commited each cycle
system.cpu1.commit.committed_per_cycle::7       264892      0.05%     99.61% # Number of insts commited each cycle
system.cpu1.commit.committed_per_cycle::8      1899608      0.39%    100.00% # Number of insts commited each cycle
system.cpu1.commit.committed_per_cycle::overflows            0      0.00%    100.00% # Number of insts commited each cycle
system.cpu1.commit.committed_per_cycle::min_value            0                       # Number of insts commited each cycle
system.cpu1.commit.committed_per_cycle::max_value            8                       # Number of insts commited each cycle
system.cpu1.commit.committed_per_cycle::total    482032820                       # Number of insts commited each cycle
system.cpu1.commit.fp_insts                        12                       # Number of committed floating point instructions.
system.cpu1.commit.function_calls              976083                       # Number of function calls committed.
system.cpu1.commit.int_insts                 81497180                       # Number of committed integer instructions.
system.cpu1.commit.loads                     23226934                       # Number of loads committed
system.cpu1.commit.membars                    3802092                       # Number of memory barriers committed
system.cpu1.commit.op_class_0::No_OpClass      3802092      4.40%      4.40% # Class of committed instruction
system.cpu1.commit.op_class_0::IntAlu        51391552     59.42%     63.81% # Class of committed instruction
system.cpu1.commit.op_class_0::IntMult             44      0.00%     63.81% # Class of committed instruction
system.cpu1.commit.op_class_0::IntDiv              88      0.00%     63.81% # Class of committed instruction
system.cpu1.commit.op_class_0::FloatAdd             0      0.00%     63.81% # Class of committed instruction
system.cpu1.commit.op_class_0::FloatCmp             0      0.00%     63.81% # Class of committed instruction
system.cpu1.commit.op_class_0::FloatCvt             0      0.00%     63.81% # Class of committed instruction
system.cpu1.commit.op_class_0::FloatMult            0      0.00%     63.81% # Class of committed instruction
system.cpu1.commit.op_class_0::FloatMultAcc            0      0.00%     63.81% # Class of committed instruction
system.cpu1.commit.op_class_0::FloatDiv             0      0.00%     63.81% # Class of committed instruction
system.cpu1.commit.op_class_0::FloatMisc            0      0.00%     63.81% # Class of committed instruction
system.cpu1.commit.op_class_0::FloatSqrt            0      0.00%     63.81% # Class of committed instruction
system.cpu1.commit.op_class_0::SimdAdd              0      0.00%     63.81% # Class of committed instruction
system.cpu1.commit.op_class_0::SimdAddAcc            0      0.00%     63.81% # Class of committed instruction
system.cpu1.commit.op_class_0::SimdAlu              0      0.00%     63.81% # Class of committed instruction
system.cpu1.commit.op_class_0::SimdCmp              0      0.00%     63.81% # Class of committed instruction
system.cpu1.commit.op_class_0::SimdCvt              0      0.00%     63.81% # Class of committed instruction
system.cpu1.commit.op_class_0::SimdMisc             0      0.00%     63.81% # Class of committed instruction
system.cpu1.commit.op_class_0::SimdMult             0      0.00%     63.81% # Class of committed instruction
system.cpu1.commit.op_class_0::SimdMultAcc            0      0.00%     63.81% # Class of committed instruction
system.cpu1.commit.op_class_0::SimdShift            0      0.00%     63.81% # Class of committed instruction
system.cpu1.commit.op_class_0::SimdShiftAcc            0      0.00%     63.81% # Class of committed instruction
system.cpu1.commit.op_class_0::SimdDiv              0      0.00%     63.81% # Class of committed instruction
system.cpu1.commit.op_class_0::SimdSqrt             0      0.00%     63.81% # Class of committed instruction
system.cpu1.commit.op_class_0::SimdFloatAdd            0      0.00%     63.81% # Class of committed instruction
system.cpu1.commit.op_class_0::SimdFloatAlu            0      0.00%     63.81% # Class of committed instruction
system.cpu1.commit.op_class_0::SimdFloatCmp            0      0.00%     63.81% # Class of committed instruction
system.cpu1.commit.op_class_0::SimdFloatCvt            0      0.00%     63.81% # Class of committed instruction
system.cpu1.commit.op_class_0::SimdFloatDiv            0      0.00%     63.81% # Class of committed instruction
system.cpu1.commit.op_class_0::SimdFloatMisc            0      0.00%     63.81% # Class of committed instruction
system.cpu1.commit.op_class_0::SimdFloatMult            0      0.00%     63.81% # Class of committed instruction
system.cpu1.commit.op_class_0::SimdFloatMultAcc            0      0.00%     63.81% # Class of committed instruction
system.cpu1.commit.op_class_0::SimdFloatSqrt            0      0.00%     63.81% # Class of committed instruction
system.cpu1.commit.op_class_0::SimdReduceAdd            0      0.00%     63.81% # Class of committed instruction
system.cpu1.commit.op_class_0::SimdReduceAlu            0      0.00%     63.81% # Class of committed instruction
system.cpu1.commit.op_class_0::SimdReduceCmp            0      0.00%     63.81% # Class of committed instruction
system.cpu1.commit.op_class_0::SimdFloatReduceAdd            0      0.00%     63.81% # Class of committed instruction
system.cpu1.commit.op_class_0::SimdFloatReduceCmp            0      0.00%     63.81% # Class of committed instruction
system.cpu1.commit.op_class_0::SimdAes              0      0.00%     63.81% # Class of committed instruction
system.cpu1.commit.op_class_0::SimdAesMix            0      0.00%     63.81% # Class of committed instruction
system.cpu1.commit.op_class_0::SimdSha1Hash            0      0.00%     63.81% # Class of committed instruction
system.cpu1.commit.op_class_0::SimdSha1Hash2            0      0.00%     63.81% # Class of committed instruction
system.cpu1.commit.op_class_0::SimdSha256Hash            0      0.00%     63.81% # Class of committed instruction
system.cpu1.commit.op_class_0::SimdSha256Hash2            0      0.00%     63.81% # Class of committed instruction
system.cpu1.commit.op_class_0::SimdShaSigma2            0      0.00%     63.81% # Class of committed instruction
system.cpu1.commit.op_class_0::SimdShaSigma3            0      0.00%     63.81% # Class of committed instruction
system.cpu1.commit.op_class_0::SimdPredAlu            0      0.00%     63.81% # Class of committed instruction
system.cpu1.commit.op_class_0::MemRead       25127933     29.05%     92.87% # Class of committed instruction
system.cpu1.commit.op_class_0::MemWrite       6170818      7.13%    100.00% # Class of committed instruction
system.cpu1.commit.op_class_0::FloatMemRead            0      0.00%    100.00% # Class of committed instruction
system.cpu1.commit.op_class_0::FloatMemWrite           12      0.00%    100.00% # Class of committed instruction
system.cpu1.commit.op_class_0::IprAccess            0      0.00%    100.00% # Class of committed instruction
system.cpu1.commit.op_class_0::InstPrefetch            0      0.00%    100.00% # Class of committed instruction
system.cpu1.commit.op_class_0::total         86492539                       # Class of committed instruction
system.cpu1.commit.refs                      31298763                       # Number of memory references committed
system.cpu1.commit.swp_count                        0                       # Number of s/w prefetches committed
system.cpu1.commit.vec_insts                        0                       # Number of committed Vector instructions.
system.cpu1.committedInsts                   84591322                       # Number of Instructions Simulated
system.cpu1.committedOps                     86492539                       # Number of Ops (including micro ops) Simulated
system.cpu1.cpi                              5.754685                       # CPI: Cycles Per Instruction
system.cpu1.cpi_total                        5.754685                       # CPI: Total CPI of All Threads
system.cpu1.decode.BlockedCycles            418607594                       # Number of cycles decode is blocked
system.cpu1.decode.BranchMispred               278714                       # Number of times decode detected a branch misprediction
system.cpu1.decode.BranchResolved            13384646                       # Number of times decode resolved a branch
system.cpu1.decode.DecodedInsts             104804490                       # Number of instructions handled by decode
system.cpu1.decode.IdleCycles                17319944                       # Number of cycles decode is idle
system.cpu1.decode.RunCycles                 42647188                       # Number of cycles decode is running
system.cpu1.decode.SquashCycles               1452082                       # Number of cycles decode is squashing
system.cpu1.decode.SquashedInsts               755919                       # Number of squashed instructions handled by decode
system.cpu1.decode.UnblockCycles              4539443                       # Number of cycles decode is unblocking
system.cpu1.dtb.accesses                            0                       # DTB accesses
system.cpu1.dtb.hits                                0                       # DTB hits
system.cpu1.dtb.misses                              0                       # DTB misses
system.cpu1.dtb.read_accesses                       0                       # DTB read accesses
system.cpu1.dtb.read_hits                           0                       # DTB read hits
system.cpu1.dtb.read_misses                         0                       # DTB read misses
system.cpu1.dtb.write_accesses                      0                       # DTB write accesses
system.cpu1.dtb.write_hits                          0                       # DTB write hits
system.cpu1.dtb.write_misses                        0                       # DTB write misses
system.cpu1.fetch.Branches                   25996222                       # Number of branches that fetch encountered
system.cpu1.fetch.CacheLines                 15215870                       # Number of cache lines fetched
system.cpu1.fetch.Cycles                    465178026                       # Number of cycles fetch has run and was not squashing or blocked
system.cpu1.fetch.IcacheSquashes               350219                       # Number of outstanding Icache misses that were squashed
system.cpu1.fetch.IcacheWaitRetryStallCycles           27                       # Number of stall cycles due to full MSHR
system.cpu1.fetch.Insts                     107667586                       # Number of instructions fetch has processed
system.cpu1.fetch.MiscStallCycles                   4                       # Number of cycles fetch has spent waiting on interrupts, or bad addresses, or out of MSHRs
system.cpu1.fetch.SquashCycles                3445306                       # Number of cycles fetch has spent squashing
system.cpu1.fetch.branchRate                 0.053403                       # Number of branch fetches per cycle
system.cpu1.fetch.icacheStallCycles          17665541                       # Number of cycles fetch is stalled on an Icache miss
system.cpu1.fetch.predictedBranches          14779637                       # Number of branches that fetch has predicted taken
system.cpu1.fetch.rate                       0.221176                       # Number of inst fetches per cycle
system.cpu1.fetch.rateDist::samples         484566251                       # Number of instructions fetched each cycle (Total)
system.cpu1.fetch.rateDist::mean             0.226120                       # Number of instructions fetched each cycle (Total)
system.cpu1.fetch.rateDist::stdev            0.659227                       # Number of instructions fetched each cycle (Total)
system.cpu1.fetch.rateDist::underflows              0      0.00%      0.00% # Number of instructions fetched each cycle (Total)
system.cpu1.fetch.rateDist::0               416406502     85.93%     85.93% # Number of instructions fetched each cycle (Total)
system.cpu1.fetch.rateDist::1                41711315      8.61%     94.54% # Number of instructions fetched each cycle (Total)
system.cpu1.fetch.rateDist::2                16017266      3.31%     97.85% # Number of instructions fetched each cycle (Total)
system.cpu1.fetch.rateDist::3                 7421318      1.53%     99.38% # Number of instructions fetched each cycle (Total)
system.cpu1.fetch.rateDist::4                 1958656      0.40%     99.78% # Number of instructions fetched each cycle (Total)
system.cpu1.fetch.rateDist::5                  582039      0.12%     99.90% # Number of instructions fetched each cycle (Total)
system.cpu1.fetch.rateDist::6                  468880      0.10%    100.00% # Number of instructions fetched each cycle (Total)
system.cpu1.fetch.rateDist::7                      16      0.00%    100.00% # Number of instructions fetched each cycle (Total)
system.cpu1.fetch.rateDist::8                     259      0.00%    100.00% # Number of instructions fetched each cycle (Total)
system.cpu1.fetch.rateDist::overflows               0      0.00%    100.00% # Number of instructions fetched each cycle (Total)
system.cpu1.fetch.rateDist::min_value               0                       # Number of instructions fetched each cycle (Total)
system.cpu1.fetch.rateDist::max_value               8                       # Number of instructions fetched each cycle (Total)
system.cpu1.fetch.rateDist::total           484566251                       # Number of instructions fetched each cycle (Total)
system.cpu1.fp_regfile_reads                       12                       # number of floating regfile reads
system.cpu1.idleCycles                        2230131                       # Total number of cycles that the CPU has spent unscheduled due to idling
system.cpu1.iew.branchMispredicts             1546876                       # Number of branch mispredicts detected at execute
system.cpu1.iew.exec_branches                22013878                       # Number of branches executed
system.cpu1.iew.exec_nop                            0                       # number of nop insts executed
system.cpu1.iew.exec_rate                    0.195171                       # Inst execution rate
system.cpu1.iew.exec_refs                    34227365                       # number of memory reference insts executed
system.cpu1.iew.exec_stores                   8723451                       # Number of stores executed
system.cpu1.iew.exec_swp                            0                       # number of swp insts executed
system.cpu1.iew.iewBlockCycles              362865961                       # Number of cycles IEW is blocking
system.cpu1.iew.iewDispLoadInsts             26222378                       # Number of dispatched load instructions
system.cpu1.iew.iewDispNonSpecInsts           1901882                       # Number of dispatched non-speculative instructions
system.cpu1.iew.iewDispSquashedInsts          1501759                       # Number of squashed instructions skipped by dispatch
system.cpu1.iew.iewDispStoreInsts             9316632                       # Number of dispatched store instructions
system.cpu1.iew.iewDispatchedInsts           99085299                       # Number of instructions dispatched to IQ
system.cpu1.iew.iewExecLoadInsts             25503914                       # Number of load instructions executed
system.cpu1.iew.iewExecSquashedInsts          1384394                       # Number of squashed instructions skipped in execute
system.cpu1.iew.iewExecutedInsts             95008578                       # Number of executed instructions
system.cpu1.iew.iewIQFullEvents               1647987                       # Number of times the IQ has become full, causing a stall
system.cpu1.iew.iewIdleCycles                       0                       # Number of cycles IEW is idle
system.cpu1.iew.iewLSQFullEvents              4232971                       # Number of times the LSQ has become full, causing a stall
system.cpu1.iew.iewSquashCycles               1452082                       # Number of cycles IEW is squashing
system.cpu1.iew.iewUnblockCycles              8360991                       # Number of cycles IEW is unblocking
system.cpu1.iew.lsq.thread0.blockedLoads            0                       # Number of blocked loads due to partial load-store forwarding
system.cpu1.iew.lsq.thread0.cacheBlocked        70708                       # Number of times an access to memory failed due to the cache being blocked
system.cpu1.iew.lsq.thread0.forwLoads          856563                       # Number of loads that had data forwarded from stores
system.cpu1.iew.lsq.thread0.ignoredResponses        28234                       # Number of memory responses ignored because the instruction is squashed
system.cpu1.iew.lsq.thread0.invAddrLoads            0                       # Number of loads ignored due to an invalid address
system.cpu1.iew.lsq.thread0.invAddrSwpfs            0                       # Number of software prefetches ignored due to an invalid address
system.cpu1.iew.lsq.thread0.memOrderViolation         3352                       # Number of memory ordering violations
system.cpu1.iew.lsq.thread0.rescheduledLoads         6676                       # Number of loads that were rescheduled
system.cpu1.iew.lsq.thread0.squashedLoads      2995444                       # Number of loads squashed
system.cpu1.iew.lsq.thread0.squashedStores      1244803                       # Number of stores squashed
system.cpu1.iew.memOrderViolationEvents          3352                       # Number of memory order violations
system.cpu1.iew.predictedNotTakenIncorrect       542104                       # Number of branches that were predicted not taken incorrectly
system.cpu1.iew.predictedTakenIncorrect       1004772                       # Number of branches that were predicted taken incorrectly
system.cpu1.iew.wb_consumers                 52196009                       # num instructions consuming a value
system.cpu1.iew.wb_count                     93746790                       # cumulative count of insts written-back
system.cpu1.iew.wb_fanout                    0.818388                       # average fanout of values written-back
system.cpu1.iew.wb_producers                 42716589                       # num instructions producing a value
system.cpu1.iew.wb_rate                      0.192579                       # insts written-back per cycle
system.cpu1.iew.wb_sent                      93801283                       # cumulative count of insts sent to commit
system.cpu1.int_regfile_reads               119646140                       # number of integer regfile reads
system.cpu1.int_regfile_writes               61686766                       # number of integer regfile writes
system.cpu1.ipc                              0.173771                       # IPC: Instructions Per Cycle
system.cpu1.ipc_total                        0.173771                       # IPC: Total IPC of All Threads
system.cpu1.iq.FU_type_0::No_OpClass          3802295      3.94%      3.94% # Type of FU issued
system.cpu1.iq.FU_type_0::IntAlu             57887226     60.05%     64.00% # Type of FU issued
system.cpu1.iq.FU_type_0::IntMult                  58      0.00%     64.00% # Type of FU issued
system.cpu1.iq.FU_type_0::IntDiv                   90      0.00%     64.00% # Type of FU issued
system.cpu1.iq.FU_type_0::FloatAdd                  0      0.00%     64.00% # Type of FU issued
system.cpu1.iq.FU_type_0::FloatCmp                  0      0.00%     64.00% # Type of FU issued
system.cpu1.iq.FU_type_0::FloatCvt                  0      0.00%     64.00% # Type of FU issued
system.cpu1.iq.FU_type_0::FloatMult                 0      0.00%     64.00% # Type of FU issued
system.cpu1.iq.FU_type_0::FloatMultAcc              0      0.00%     64.00% # Type of FU issued
system.cpu1.iq.FU_type_0::FloatDiv                  0      0.00%     64.00% # Type of FU issued
system.cpu1.iq.FU_type_0::FloatMisc                 0      0.00%     64.00% # Type of FU issued
system.cpu1.iq.FU_type_0::FloatSqrt                 0      0.00%     64.00% # Type of FU issued
system.cpu1.iq.FU_type_0::SimdAdd                   0      0.00%     64.00% # Type of FU issued
system.cpu1.iq.FU_type_0::SimdAddAcc                0      0.00%     64.00% # Type of FU issued
system.cpu1.iq.FU_type_0::SimdAlu                   0      0.00%     64.00% # Type of FU issued
system.cpu1.iq.FU_type_0::SimdCmp                   0      0.00%     64.00% # Type of FU issued
system.cpu1.iq.FU_type_0::SimdCvt                   0      0.00%     64.00% # Type of FU issued
system.cpu1.iq.FU_type_0::SimdMisc                  0      0.00%     64.00% # Type of FU issued
system.cpu1.iq.FU_type_0::SimdMult                  0      0.00%     64.00% # Type of FU issued
system.cpu1.iq.FU_type_0::SimdMultAcc               0      0.00%     64.00% # Type of FU issued
system.cpu1.iq.FU_type_0::SimdShift                 0      0.00%     64.00% # Type of FU issued
system.cpu1.iq.FU_type_0::SimdShiftAcc              0      0.00%     64.00% # Type of FU issued
system.cpu1.iq.FU_type_0::SimdDiv                   0      0.00%     64.00% # Type of FU issued
system.cpu1.iq.FU_type_0::SimdSqrt                  0      0.00%     64.00% # Type of FU issued
system.cpu1.iq.FU_type_0::SimdFloatAdd              0      0.00%     64.00% # Type of FU issued
system.cpu1.iq.FU_type_0::SimdFloatAlu              0      0.00%     64.00% # Type of FU issued
system.cpu1.iq.FU_type_0::SimdFloatCmp              0      0.00%     64.00% # Type of FU issued
system.cpu1.iq.FU_type_0::SimdFloatCvt              0      0.00%     64.00% # Type of FU issued
system.cpu1.iq.FU_type_0::SimdFloatDiv              0      0.00%     64.00% # Type of FU issued
system.cpu1.iq.FU_type_0::SimdFloatMisc             0      0.00%     64.00% # Type of FU issued
system.cpu1.iq.FU_type_0::SimdFloatMult             0      0.00%     64.00% # Type of FU issued
system.cpu1.iq.FU_type_0::SimdFloatMultAcc            0      0.00%     64.00% # Type of FU issued
system.cpu1.iq.FU_type_0::SimdFloatSqrt             0      0.00%     64.00% # Type of FU issued
system.cpu1.iq.FU_type_0::SimdReduceAdd             0      0.00%     64.00% # Type of FU issued
system.cpu1.iq.FU_type_0::SimdReduceAlu             0      0.00%     64.00% # Type of FU issued
system.cpu1.iq.FU_type_0::SimdReduceCmp             0      0.00%     64.00% # Type of FU issued
system.cpu1.iq.FU_type_0::SimdFloatReduceAdd            0      0.00%     64.00% # Type of FU issued
system.cpu1.iq.FU_type_0::SimdFloatReduceCmp            0      0.00%     64.00% # Type of FU issued
system.cpu1.iq.FU_type_0::SimdAes                   0      0.00%     64.00% # Type of FU issued
system.cpu1.iq.FU_type_0::SimdAesMix                0      0.00%     64.00% # Type of FU issued
system.cpu1.iq.FU_type_0::SimdSha1Hash              0      0.00%     64.00% # Type of FU issued
system.cpu1.iq.FU_type_0::SimdSha1Hash2             0      0.00%     64.00% # Type of FU issued
system.cpu1.iq.FU_type_0::SimdSha256Hash            0      0.00%     64.00% # Type of FU issued
system.cpu1.iq.FU_type_0::SimdSha256Hash2            0      0.00%     64.00% # Type of FU issued
system.cpu1.iq.FU_type_0::SimdShaSigma2             0      0.00%     64.00% # Type of FU issued
system.cpu1.iq.FU_type_0::SimdShaSigma3             0      0.00%     64.00% # Type of FU issued
system.cpu1.iq.FU_type_0::SimdPredAlu               0      0.00%     64.00% # Type of FU issued
system.cpu1.iq.FU_type_0::MemRead            27766133     28.81%     92.80% # Type of FU issued
system.cpu1.iq.FU_type_0::MemWrite            6937158      7.20%    100.00% # Type of FU issued
system.cpu1.iq.FU_type_0::FloatMemRead              0      0.00%    100.00% # Type of FU issued
system.cpu1.iq.FU_type_0::FloatMemWrite            12      0.00%    100.00% # Type of FU issued
system.cpu1.iq.FU_type_0::IprAccess                 0      0.00%    100.00% # Type of FU issued
system.cpu1.iq.FU_type_0::InstPrefetch              0      0.00%    100.00% # Type of FU issued
system.cpu1.iq.FU_type_0::total              96392972                       # Type of FU issued
system.cpu1.iq.fp_alu_accesses                     16                       # Number of floating point alu accesses
system.cpu1.iq.fp_inst_queue_reads                 28                       # Number of floating instruction queue reads
system.cpu1.iq.fp_inst_queue_wakeup_accesses           12                       # Number of floating instruction queue wakeup accesses
system.cpu1.iq.fp_inst_queue_writes                12                       # Number of floating instruction queue writes
system.cpu1.iq.fu_busy_cnt                    2205287                       # FU busy when requested
system.cpu1.iq.fu_busy_rate                  0.022878                       # FU busy rate (busy events/executed inst)
system.cpu1.iq.fu_full::No_OpClass                  0      0.00%      0.00% # attempts to use FU when none available
system.cpu1.iq.fu_full::IntAlu                 376495     17.07%     17.07% # attempts to use FU when none available
system.cpu1.iq.fu_full::IntMult                     0      0.00%     17.07% # attempts to use FU when none available
system.cpu1.iq.fu_full::IntDiv                      0      0.00%     17.07% # attempts to use FU when none available
system.cpu1.iq.fu_full::FloatAdd                    0      0.00%     17.07% # attempts to use FU when none available
system.cpu1.iq.fu_full::FloatCmp                    0      0.00%     17.07% # attempts to use FU when none available
system.cpu1.iq.fu_full::FloatCvt                    0      0.00%     17.07% # attempts to use FU when none available
system.cpu1.iq.fu_full::FloatMult                   0      0.00%     17.07% # attempts to use FU when none available
system.cpu1.iq.fu_full::FloatMultAcc                0      0.00%     17.07% # attempts to use FU when none available
system.cpu1.iq.fu_full::FloatDiv                    0      0.00%     17.07% # attempts to use FU when none available
system.cpu1.iq.fu_full::FloatMisc                   0      0.00%     17.07% # attempts to use FU when none available
system.cpu1.iq.fu_full::FloatSqrt                   0      0.00%     17.07% # attempts to use FU when none available
system.cpu1.iq.fu_full::SimdAdd                     0      0.00%     17.07% # attempts to use FU when none available
system.cpu1.iq.fu_full::SimdAddAcc                  0      0.00%     17.07% # attempts to use FU when none available
system.cpu1.iq.fu_full::SimdAlu                     0      0.00%     17.07% # attempts to use FU when none available
system.cpu1.iq.fu_full::SimdCmp                     0      0.00%     17.07% # attempts to use FU when none available
system.cpu1.iq.fu_full::SimdCvt                     0      0.00%     17.07% # attempts to use FU when none available
system.cpu1.iq.fu_full::SimdMisc                    0      0.00%     17.07% # attempts to use FU when none available
system.cpu1.iq.fu_full::SimdMult                    0      0.00%     17.07% # attempts to use FU when none available
system.cpu1.iq.fu_full::SimdMultAcc                 0      0.00%     17.07% # attempts to use FU when none available
system.cpu1.iq.fu_full::SimdShift                   0      0.00%     17.07% # attempts to use FU when none available
system.cpu1.iq.fu_full::SimdShiftAcc                0      0.00%     17.07% # attempts to use FU when none available
system.cpu1.iq.fu_full::SimdDiv                     0      0.00%     17.07% # attempts to use FU when none available
system.cpu1.iq.fu_full::SimdSqrt                    0      0.00%     17.07% # attempts to use FU when none available
system.cpu1.iq.fu_full::SimdFloatAdd                0      0.00%     17.07% # attempts to use FU when none available
system.cpu1.iq.fu_full::SimdFloatAlu                0      0.00%     17.07% # attempts to use FU when none available
system.cpu1.iq.fu_full::SimdFloatCmp                0      0.00%     17.07% # attempts to use FU when none available
system.cpu1.iq.fu_full::SimdFloatCvt                0      0.00%     17.07% # attempts to use FU when none available
system.cpu1.iq.fu_full::SimdFloatDiv                0      0.00%     17.07% # attempts to use FU when none available
system.cpu1.iq.fu_full::SimdFloatMisc               0      0.00%     17.07% # attempts to use FU when none available
system.cpu1.iq.fu_full::SimdFloatMult               0      0.00%     17.07% # attempts to use FU when none available
system.cpu1.iq.fu_full::SimdFloatMultAcc            0      0.00%     17.07% # attempts to use FU when none available
system.cpu1.iq.fu_full::SimdFloatSqrt               0      0.00%     17.07% # attempts to use FU when none available
system.cpu1.iq.fu_full::SimdReduceAdd               0      0.00%     17.07% # attempts to use FU when none available
system.cpu1.iq.fu_full::SimdReduceAlu               0      0.00%     17.07% # attempts to use FU when none available
system.cpu1.iq.fu_full::SimdReduceCmp               0      0.00%     17.07% # attempts to use FU when none available
system.cpu1.iq.fu_full::SimdFloatReduceAdd            0      0.00%     17.07% # attempts to use FU when none available
system.cpu1.iq.fu_full::SimdFloatReduceCmp            0      0.00%     17.07% # attempts to use FU when none available
system.cpu1.iq.fu_full::SimdAes                     0      0.00%     17.07% # attempts to use FU when none available
system.cpu1.iq.fu_full::SimdAesMix                  0      0.00%     17.07% # attempts to use FU when none available
system.cpu1.iq.fu_full::SimdSha1Hash                0      0.00%     17.07% # attempts to use FU when none available
system.cpu1.iq.fu_full::SimdSha1Hash2               0      0.00%     17.07% # attempts to use FU when none available
system.cpu1.iq.fu_full::SimdSha256Hash              0      0.00%     17.07% # attempts to use FU when none available
system.cpu1.iq.fu_full::SimdSha256Hash2             0      0.00%     17.07% # attempts to use FU when none available
system.cpu1.iq.fu_full::SimdShaSigma2               0      0.00%     17.07% # attempts to use FU when none available
system.cpu1.iq.fu_full::SimdShaSigma3               0      0.00%     17.07% # attempts to use FU when none available
system.cpu1.iq.fu_full::SimdPredAlu                 0      0.00%     17.07% # attempts to use FU when none available
system.cpu1.iq.fu_full::MemRead               1611269     73.06%     90.14% # attempts to use FU when none available
[...]
system.cpu1.dcache.WriteReq_mshr_miss_rate::total     0.036618                       # mshr miss rate for WriteReq accesses
system.cpu1.dcache.WriteReq_avg_mshr_miss_latency::.cpu1.data 99723.340949                       # average WriteReq mshr miss latency
system.cpu1.dcache.WriteReq_avg_mshr_miss_latency::total 99723.340949                       # average WriteReq mshr miss latency
system.cpu1.dcache.LoadLockedReq_hits::.cpu1.data       120009                       # number of LoadLockedReq hits
system.cpu1.dcache.LoadLockedReq_hits::total       120009                       # number of LoadLockedReq hits
system.cpu1.dcache.LoadLockedReq_misses::.cpu1.data         1413                       # number of LoadLockedReq misses
system.cpu1.dcache.LoadLockedReq_misses::total         1413                       # number of LoadLockedReq misses
system.cpu1.dcache.LoadLockedReq_miss_latency::.cpu1.data     52133000                       # number of LoadLockedReq miss cycles
system.cpu1.dcache.LoadLockedReq_miss_latency::total     52133000                       # number of LoadLockedReq miss cycles
system.cpu1.dcache.LoadLockedReq_accesses::.cpu1.data       121422                       # number of LoadLockedReq accesses(hits+misses)
system.cpu1.dcache.LoadLockedReq_accesses::total       121422                       # number of LoadLockedReq accesses(hits+misses)
system.cpu1.dcache.LoadLockedReq_miss_rate::.cpu1.data     0.011637                       # miss rate for LoadLockedReq accesses
system.cpu1.dcache.LoadLockedReq_miss_rate::total     0.011637                       # miss rate for LoadLockedReq accesses
system.cpu1.dcache.LoadLockedReq_avg_miss_latency::.cpu1.data 36895.258316                       # average LoadLockedReq miss latency
system.cpu1.dcache.LoadLockedReq_avg_miss_latency::total 36895.258316                       # average LoadLockedReq miss latency
system.cpu1.dcache.LoadLockedReq_mshr_hits::.cpu1.data          582                       # number of LoadLockedReq MSHR hits
system.cpu1.dcache.LoadLockedReq_mshr_hits::total          582                       # number of LoadLockedReq MSHR hits
system.cpu1.dcache.LoadLockedReq_mshr_misses::.cpu1.data          831                       # number of LoadLockedReq MSHR misses
system.cpu1.dcache.LoadLockedReq_mshr_misses::total          831                       # number of LoadLockedReq MSHR misses
system.cpu1.dcache.LoadLockedReq_mshr_miss_latency::.cpu1.data     15015500                       # number of LoadLockedReq MSHR miss cycles
system.cpu1.dcache.LoadLockedReq_mshr_miss_latency::total     15015500                       # number of LoadLockedReq MSHR miss cycles
system.cpu1.dcache.LoadLockedReq_mshr_miss_rate::.cpu1.data     0.006844                       # mshr miss rate for LoadLockedReq accesses
system.cpu1.dcache.LoadLockedReq_mshr_miss_rate::total     0.006844                       # mshr miss rate for LoadLockedReq accesses
system.cpu1.dcache.LoadLockedReq_avg_mshr_miss_latency::.cpu1.data 18069.193742                       # average LoadLockedReq mshr miss latency
system.cpu1.dcache.LoadLockedReq_avg_mshr_miss_latency::total 18069.193742                       # average LoadLockedReq mshr miss latency
system.cpu1.dcache.StoreCondReq_hits::.cpu1.data       117635                       # number of StoreCondReq hits
system.cpu1.dcache.StoreCondReq_hits::total       117635                       # number of StoreCondReq hits
system.cpu1.dcache.StoreCondReq_misses::.cpu1.data         2513                       # number of StoreCondReq misses
system.cpu1.dcache.StoreCondReq_misses::total         2513                       # number of StoreCondReq misses
system.cpu1.dcache.StoreCondReq_miss_latency::.cpu1.data     23708500                       # number of StoreCondReq miss cycles
system.cpu1.dcache.StoreCondReq_miss_latency::total     23708500                       # number of StoreCondReq miss cycles
system.cpu1.dcache.StoreCondReq_accesses::.cpu1.data       120148                       # number of StoreCondReq accesses(hits+misses)
system.cpu1.dcache.StoreCondReq_accesses::total       120148                       # number of StoreCondReq accesses(hits+misses)
system.cpu1.dcache.StoreCondReq_miss_rate::.cpu1.data     0.020916                       # miss rate for StoreCondReq accesses
system.cpu1.dcache.StoreCondReq_miss_rate::total     0.020916                       # miss rate for StoreCondReq accesses
system.cpu1.dcache.StoreCondReq_avg_miss_latency::.cpu1.data  9434.341425                       # average StoreCondReq miss latency
system.cpu1.dcache.StoreCondReq_avg_miss_latency::total  9434.341425                       # average StoreCondReq miss latency
system.cpu1.dcache.StoreCondReq_mshr_misses::.cpu1.data         2468                       # number of StoreCondReq MSHR misses
system.cpu1.dcache.StoreCondReq_mshr_misses::total         2468                       # number of StoreCondReq MSHR misses
system.cpu1.dcache.StoreCondReq_mshr_miss_latency::.cpu1.data     21415500                       # number of StoreCondReq MSHR miss cycles
system.cpu1.dcache.StoreCondReq_mshr_miss_latency::total     21415500                       # number of StoreCondReq MSHR miss cycles
system.cpu1.dcache.StoreCondReq_mshr_miss_rate::.cpu1.data     0.020541                       # mshr miss rate for StoreCondReq accesses
system.cpu1.dcache.StoreCondReq_mshr_miss_rate::total     0.020541                       # mshr miss rate for StoreCondReq accesses
system.cpu1.dcache.StoreCondReq_avg_mshr_miss_latency::.cpu1.data  8677.269044                       # average StoreCondReq mshr miss latency
system.cpu1.dcache.StoreCondReq_avg_mshr_miss_latency::total  8677.269044                       # average StoreCondReq mshr miss latency
system.cpu1.dcache.StoreCondFailReq_miss_latency::.cpu1.data      5099000                       # number of StoreCondFailReq miss cycles
system.cpu1.dcache.StoreCondFailReq_miss_latency::total      5099000                       # number of StoreCondFailReq miss cycles
system.cpu1.dcache.StoreCondFailReq_avg_miss_latency::.cpu1.data          inf                       # average StoreCondFailReq miss latency
system.cpu1.dcache.StoreCondFailReq_avg_miss_latency::total          inf                       # average StoreCondFailReq miss latency
system.cpu1.dcache.StoreCondFailReq_mshr_miss_latency::.cpu1.data      4924000                       # number of StoreCondFailReq MSHR miss cycles
system.cpu1.dcache.StoreCondFailReq_mshr_miss_latency::total      4924000                       # number of StoreCondFailReq MSHR miss cycles
system.cpu1.dcache.StoreCondFailReq_avg_mshr_miss_latency::.cpu1.data          inf                       # average StoreCondFailReq mshr miss latency
system.cpu1.dcache.StoreCondFailReq_avg_mshr_miss_latency::total          inf                       # average StoreCondFailReq mshr miss latency
system.cpu1.dcache.SwapReq_hits::.cpu1.data         1222                       # number of SwapReq hits
system.cpu1.dcache.SwapReq_hits::total           1222                       # number of SwapReq hits
system.cpu1.dcache.SwapReq_misses::.cpu1.data         5276                       # number of SwapReq misses
system.cpu1.dcache.SwapReq_misses::total         5276                       # number of SwapReq misses
system.cpu1.dcache.SwapReq_miss_latency::.cpu1.data    160681999                       # number of SwapReq miss cycles
system.cpu1.dcache.SwapReq_miss_latency::total    160681999                       # number of SwapReq miss cycles
system.cpu1.dcache.SwapReq_accesses::.cpu1.data         6498                       # number of SwapReq accesses(hits+misses)
system.cpu1.dcache.SwapReq_accesses::total         6498                       # number of SwapReq accesses(hits+misses)
system.cpu1.dcache.SwapReq_miss_rate::.cpu1.data     0.811942                       # miss rate for SwapReq accesses
system.cpu1.dcache.SwapReq_miss_rate::total     0.811942                       # miss rate for SwapReq accesses
system.cpu1.dcache.SwapReq_avg_miss_latency::.cpu1.data 30455.268954                       # average SwapReq miss latency
system.cpu1.dcache.SwapReq_avg_miss_latency::total 30455.268954                       # average SwapReq miss latency
system.cpu1.dcache.SwapReq_mshr_misses::.cpu1.data         5276                       # number of SwapReq MSHR misses
system.cpu1.dcache.SwapReq_mshr_misses::total         5276                       # number of SwapReq MSHR misses
system.cpu1.dcache.SwapReq_mshr_miss_latency::.cpu1.data    155405999                       # number of SwapReq MSHR miss cycles
system.cpu1.dcache.SwapReq_mshr_miss_latency::total    155405999                       # number of SwapReq MSHR miss cycles
system.cpu1.dcache.SwapReq_mshr_miss_rate::.cpu1.data     0.811942                       # mshr miss rate for SwapReq accesses
system.cpu1.dcache.SwapReq_mshr_miss_rate::total     0.811942                       # mshr miss rate for SwapReq accesses
system.cpu1.dcache.SwapReq_avg_mshr_miss_latency::.cpu1.data 29455.268954                       # average SwapReq mshr miss latency
system.cpu1.dcache.SwapReq_avg_mshr_miss_latency::total 29455.268954                       # average SwapReq mshr miss latency
system.cpu1.dcache.tags.pwrStateResidencyTicks::UNDEFINED 153063928500                       # Cumulative time (in ticks) in various power states
system.cpu1.dcache.tags.tagsinuse           31.270414                       # Cycle average of tags in use
system.cpu1.dcache.tags.total_refs           25239499                       # Total number of references to valid blocks.
system.cpu1.dcache.tags.sampled_refs          2702995                       # Sample count of references to valid blocks.
system.cpu1.dcache.tags.avg_refs             9.337605                       # Average number of references to valid blocks.
system.cpu1.dcache.tags.warmup_cycle                0                       # Cycle when the warmup percentage was hit.
system.cpu1.dcache.tags.occ_blocks::.cpu1.data    31.270414                       # Average occupied blocks per requestor
system.cpu1.dcache.tags.occ_percent::.cpu1.data     0.977200                       # Average percentage of cache occupancy
system.cpu1.dcache.tags.occ_percent::total     0.977200                       # Average percentage of cache occupancy
system.cpu1.dcache.tags.occ_task_id_blocks::1024           30                       # Occupied blocks per task id
system.cpu1.dcache.tags.age_task_id_blocks_1024::1           30                       # Occupied blocks per task id
system.cpu1.dcache.tags.occ_task_id_percent::1024     0.937500                       # Percentage of cache occupancy per task id
system.cpu1.dcache.tags.tag_accesses         67910041                       # Number of tag accesses
system.cpu1.dcache.tags.data_accesses        67910041                       # Number of data accesses
system.cpu_clk_domain.clock                       500                       # Clock period in ticks
system.tol2bus.pwrStateResidencyTicks::UNDEFINED 153063928500                       # Cumulative time (in ticks) in various power states
system.tol2bus.trans_dist::ReadResp          10755323                       # Transaction distribution
system.tol2bus.trans_dist::ReadRespWithInvalidate           24                       # Transaction distribution
system.tol2bus.trans_dist::WritebackDirty      2126396                       # Transaction distribution
system.tol2bus.trans_dist::WritebackClean      9838883                       # Transaction distribution
system.tol2bus.trans_dist::CleanEvict        26166253                       # Transaction distribution
system.tol2bus.trans_dist::HardPFReq         20719475                       # Transaction distribution
system.tol2bus.trans_dist::HardPFResp               8                       # Transaction distribution
system.tol2bus.trans_dist::UpgradeReq           43465                       # Transaction distribution
system.tol2bus.trans_dist::SCUpgradeReq         11755                       # Transaction distribution
system.tol2bus.trans_dist::UpgradeResp          55220                       # Transaction distribution
system.tol2bus.trans_dist::SCUpgradeFailReq          544                       # Transaction distribution
system.tol2bus.trans_dist::UpgradeFailResp          544                       # Transaction distribution
system.tol2bus.trans_dist::ReadExReq           395213                       # Transaction distribution
system.tol2bus.trans_dist::ReadExResp          395213                       # Transaction distribution
system.tol2bus.trans_dist::ReadCleanReq        199904                       # Transaction distribution
system.tol2bus.trans_dist::ReadSharedReq     10555442                       # Transaction distribution
system.tol2bus.trans_dist::InvalidateReq         3806                       # Transaction distribution
system.tol2bus.trans_dist::InvalidateResp         3806                       # Transaction distribution
system.tol2bus.pkt_count_system.cpu0.icache.mem_side::system.l2.cpu_side       369089                       # Packet count per connected master and slave (bytes)
system.tol2bus.pkt_count_system.cpu0.dcache.mem_side::system.l2.cpu_side      8627514                       # Packet count per connected master and slave (bytes)
system.tol2bus.pkt_count_system.cpu1.icache.mem_side::system.l2.cpu_side        76953                       # Packet count per connected master and slave (bytes)
system.tol2bus.pkt_count_system.cpu1.dcache.mem_side::system.l2.cpu_side      8082455                       # Packet count per connected master and slave (bytes)
system.tol2bus.pkt_count_system.cpu2.icache.mem_side::system.l2.cpu_side        76089                       # Packet count per connected master and slave (bytes)
system.tol2bus.pkt_count_system.cpu2.dcache.mem_side::system.l2.cpu_side      8019635                       # Packet count per connected master and slave (bytes)
system.tol2bus.pkt_count_system.cpu3.icache.mem_side::system.l2.cpu_side        77583                       # Packet count per connected master and slave (bytes)
system.tol2bus.pkt_count_system.cpu3.dcache.mem_side::system.l2.cpu_side      8033761                       # Packet count per connected master and slave (bytes)
system.tol2bus.pkt_count::total              33363079                       # Packet count per connected master and slave (bytes)
system.tol2bus.pkt_size_system.cpu0.icache.mem_side::system.l2.cpu_side     15747840                       # Cumulative packet size per connected master and slave (bytes)
system.tol2bus.pkt_size_system.cpu0.dcache.mem_side::system.l2.cpu_side    366249920                       # Cumulative packet size per connected master and slave (bytes)
system.tol2bus.pkt_size_system.cpu1.icache.mem_side::system.l2.cpu_side      3283328                       # Cumulative packet size per connected master and slave (bytes)
system.tol2bus.pkt_size_system.cpu1.dcache.mem_side::system.l2.cpu_side    343299904                       # Cumulative packet size per connected master and slave (bytes)
system.tol2bus.pkt_size_system.cpu2.icache.mem_side::system.l2.cpu_side      3246464                       # Cumulative packet size per connected master and slave (bytes)
system.tol2bus.pkt_size_system.cpu2.dcache.mem_side::system.l2.cpu_side    340521408                       # Cumulative packet size per connected master and slave (bytes)
system.tol2bus.pkt_size_system.cpu3.icache.mem_side::system.l2.cpu_side      3310208                       # Cumulative packet size per connected master and slave (bytes)
system.tol2bus.pkt_size_system.cpu3.dcache.mem_side::system.l2.cpu_side    341193088                       # Cumulative packet size per connected master and slave (bytes)
system.tol2bus.pkt_size::total             1416852160                       # Cumulative packet size per connected master and slave (bytes)
system.tol2bus.snoops                        47908203                       # Total snoops (count)
system.tol2bus.snoopTraffic                  62597376                       # Total snoop traffic (bytes)
system.tol2bus.snoop_fanout::samples         60027076                       # Request fanout histogram
system.tol2bus.snoop_fanout::mean            0.233042                       # Request fanout histogram
system.tol2bus.snoop_fanout::stdev           0.556769                       # Request fanout histogram
system.tol2bus.snoop_fanout::underflows             0      0.00%      0.00% # Request fanout histogram
system.tol2bus.snoop_fanout::0               48909462     81.48%     81.48% # Request fanout histogram
system.tol2bus.snoop_fanout::1                9177702     15.29%     96.77% # Request fanout histogram
system.tol2bus.snoop_fanout::2                1145640      1.91%     98.68% # Request fanout histogram
system.tol2bus.snoop_fanout::3                 657246      1.09%     99.77% # Request fanout histogram
system.tol2bus.snoop_fanout::4                 137026      0.23%    100.00% # Request fanout histogram
system.tol2bus.snoop_fanout::5                      0      0.00%    100.00% # Request fanout histogram
system.tol2bus.snoop_fanout::6                      0      0.00%    100.00% # Request fanout histogram
system.tol2bus.snoop_fanout::7                      0      0.00%    100.00% # Request fanout histogram
system.tol2bus.snoop_fanout::8                      0      0.00%    100.00% # Request fanout histogram
system.tol2bus.snoop_fanout::overflows              0      0.00%    100.00% # Request fanout histogram
system.tol2bus.snoop_fanout::min_value              0                       # Request fanout histogram
system.tol2bus.snoop_fanout::max_value              4                       # Request fanout histogram
system.tol2bus.snoop_fanout::total           60027076                       # Request fanout histogram
system.tol2bus.reqLayer0.occupancy        23874559399                       # Layer occupancy (ticks)
system.tol2bus.reqLayer0.utilization             15.6                       # Layer utilization (%)
system.tol2bus.respLayer5.occupancy        4054987804                       # Layer occupancy (ticks)
system.tol2bus.respLayer5.utilization             2.6                       # Layer utilization (%)
system.tol2bus.respLayer4.occupancy          40278202                       # Layer occupancy (ticks)
system.tol2bus.respLayer4.utilization             0.0                       # Layer utilization (%)
system.tol2bus.respLayer7.occupancy        4060829593                       # Layer occupancy (ticks)
system.tol2bus.respLayer7.utilization             2.7                       # Layer utilization (%)
system.tol2bus.respLayer6.occupancy          40863486                       # Layer occupancy (ticks)
system.tol2bus.respLayer6.utilization             0.0                       # Layer utilization (%)
system.tol2bus.respLayer1.occupancy        4352462541                       # Layer occupancy (ticks)
system.tol2bus.respLayer1.utilization             2.8                       # Layer utilization (%)
system.tol2bus.respLayer0.occupancy         184802893                       # Layer occupancy (ticks)
system.tol2bus.respLayer0.utilization             0.1                       # Layer utilization (%)
system.tol2bus.respLayer3.occupancy        4085158738                       # Layer occupancy (ticks)
system.tol2bus.respLayer3.utilization             2.7                       # Layer utilization (%)
system.tol2bus.respLayer2.occupancy          40753636                       # Layer occupancy (ticks)
system.tol2bus.respLayer2.utilization             0.0                       # Layer utilization (%)
system.tol2bus.snoopLayer0.occupancy            12005                       # Layer occupancy (ticks)
system.tol2bus.snoopLayer0.utilization            0.0                       # Layer utilization (%)

---------- End Simulation Statistics   ----------
