
---------- Begin Simulation Statistics ----------
final_tick                               2139567387000                       # Number of ticks from beginning of simulation (restored from checkpoints and never reset)
host_inst_rate                                  59935                       # Simulator instruction rate (inst/s)
host_mem_usage                                 702404                       # Number of bytes of host memory used
host_op_rate                                    60129                       # Simulator op (including micro ops) rate (op/s)
host_seconds                                 39292.75                       # Real time elapsed on the host
host_tick_rate                               54451962                       # Simulator tick rate (ticks/s)
sim_freq                                 1000000000000                       # Frequency of simulated ticks
sim_insts                                  2355021150                       # Number of instructions simulated
sim_ops                                    2362630081                       # Number of ops (including micro ops) simulated
sim_seconds                                  2.139567                       # Number of seconds simulated
sim_ticks                                2139567387000                       # Number of ticks simulated
system.cpu0.branchPred.BTBCorrect                   0                       # Number of correct BTB predictions (this stat may not work properly.
system.cpu0.branchPred.BTBHitPct            86.728435                       # BTB Hit Percentage
system.cpu0.branchPred.BTBHits              293908967                       # Number of BTB hits
system.cpu0.branchPred.BTBLookups           338884205                       # Number of BTB lookups
system.cpu0.branchPred.RASInCorrect                 0                       # Number of incorrect RAS predictions.
system.cpu0.branchPred.condIncorrect         20541218                       # Number of conditional branches incorrect
system.cpu0.branchPred.condPredicted        462723038                       # Number of conditional branches predicted
system.cpu0.branchPred.indirectHits          38711477                       # Number of indirect target hits.
system.cpu0.branchPred.indirectLookups       39259304                       # Number of indirect predictor lookups.
system.cpu0.branchPred.indirectMisses          547827                       # Number of indirect misses.
system.cpu0.branchPred.lookups              587328161                       # Number of BP lookups
system.cpu0.branchPred.usedRAS                      0                       # Number of times the RAS was used to get a target.
system.cpu0.branchPredindirectMispredicted      3963558                       # Number of mispredicted indirect branches.
system.cpu0.commit.amos                       3801874                       # Number of atomic instructions committed
system.cpu0.commit.branchMispredicts         14278336                       # The number of times a branch was mispredicted
system.cpu0.commit.branches                 555066010                       # Number of branches committed
system.cpu0.commit.bw_lim_events             61580620                       # number cycles where commit BW limit reached
system.cpu0.commit.commitNonSpecStalls       11419562                       # The number of times commit has been forced to stall to communicate backwards
system.cpu0.commit.commitSquashedInsts      116517459                       # The number of squashed insts skipped by commit
system.cpu0.commit.committedInsts          2224944718                       # Number of instructions committed
system.cpu0.commit.committedOps            2228751893                       # Number of ops (including micro ops) committed
system.cpu0.commit.committed_per_cycle::samples   3963357044                       # Number of insts commited each cycle
system.cpu0.commit.committed_per_cycle::mean     0.562339                       # Number of insts commited each cycle
system.cpu0.commit.committed_per_cycle::stdev     1.314166                       # Number of insts commited each cycle
system.cpu0.commit.committed_per_cycle::underflows            0      0.00%      0.00% # Number of insts commited each cycle
system.cpu0.commit.committed_per_cycle::0   2858017285     72.11%     72.11% # Number of insts commited each cycle
system.cpu0.commit.committed_per_cycle::1    682140223     17.21%     89.32% # Number of insts commited each cycle
system.cpu0.commit.committed_per_cycle::2    145983996      3.68%     93.01% # Number of insts commited each cycle
system.cpu0.commit.committed_per_cycle::3    146914076      3.71%     96.71% # Number of insts commited each cycle
system.cpu0.commit.committed_per_cycle::4     41183922      1.04%     97.75% # Number of insts commited each cycle
system.cpu0.commit.committed_per_cycle::5     15766944      0.40%     98.15% # Number of insts commited each cycle
system.cpu0.commit.committed_per_cycle::6      4703764      0.12%     98.27% # Number of insts commited each cycle
system.cpu0.commit.committed_per_cycle::7      7066214      0.18%     98.45% # Number of insts commited each cycle
system.cpu0.commit.committed_per_cycle::8     61580620      1.55%    100.00% # Number of insts commited each cycle
system.cpu0.commit.committed_per_cycle::overflows            0      0.00%    100.00% # Number of insts commited each cycle
system.cpu0.commit.committed_per_cycle::min_value            0                       # Number of insts commited each cycle
system.cpu0.commit.committed_per_cycle::max_value            8                       # Number of insts commited each cycle
system.cpu0.commit.committed_per_cycle::total   3963357044                       # Number of insts commited each cycle
system.cpu0.commit.fp_insts                        46                       # Number of committed floating point instructions.
system.cpu0.commit.function_calls            44164553                       # Number of function calls committed.
system.cpu0.commit.int_insts               2151043015                       # Number of committed integer instructions.
system.cpu0.commit.loads                    691575716                       # Number of loads committed
system.cpu0.commit.membars                    7608921                       # Number of memory barriers committed
system.cpu0.commit.op_class_0::No_OpClass      7608927      0.34%      0.34% # Class of committed instruction
system.cpu0.commit.op_class_0::IntAlu      1238877156     55.59%     55.93% # Class of committed instruction
system.cpu0.commit.op_class_0::IntMult       18316825      0.82%     56.75% # Class of committed instruction
system.cpu0.commit.op_class_0::IntDiv         3801411      0.17%     56.92% # Class of committed instruction
system.cpu0.commit.op_class_0::FloatAdd             0      0.00%     56.92% # Class of committed instruction
system.cpu0.commit.op_class_0::FloatCmp             4      0.00%     56.92% # Class of committed instruction
system.cpu0.commit.op_class_0::FloatCvt            12      0.00%     56.92% # Class of committed instruction
system.cpu0.commit.op_class_0::FloatMult            0      0.00%     56.92% # Class of committed instruction
system.cpu0.commit.op_class_0::FloatMultAcc            0      0.00%     56.92% # Class of committed instruction
system.cpu0.commit.op_class_0::FloatDiv             2      0.00%     56.92% # Class of committed instruction
system.cpu0.commit.op_class_0::FloatMisc            4      0.00%     56.92% # Class of committed instruction
system.cpu0.commit.op_class_0::FloatSqrt            0      0.00%     56.92% # Class of committed instruction
system.cpu0.commit.op_class_0::SimdAdd              0      0.00%     56.92% # Class of committed instruction
system.cpu0.commit.op_class_0::SimdAddAcc            0      0.00%     56.92% # Class of committed instruction
system.cpu0.commit.op_class_0::SimdAlu              0      0.00%     56.92% # Class of committed instruction
system.cpu0.commit.op_class_0::SimdCmp              0      0.00%     56.92% # Class of committed instruction
system.cpu0.commit.op_class_0::SimdCvt              0      0.00%     56.92% # Class of committed instruction
system.cpu0.commit.op_class_0::SimdMisc             0      0.00%     56.92% # Class of committed instruction
system.cpu0.commit.op_class_0::SimdMult             0      0.00%     56.92% # Class of committed instruction
system.cpu0.commit.op_class_0::SimdMultAcc            0      0.00%     56.92% # Class of committed instruction
system.cpu0.commit.op_class_0::SimdShift            0      0.00%     56.92% # Class of committed instruction
system.cpu0.commit.op_class_0::SimdShiftAcc            0      0.00%     56.92% # Class of committed instruction
system.cpu0.commit.op_class_0::SimdDiv              0      0.00%     56.92% # Class of committed instruction
system.cpu0.commit.op_class_0::SimdSqrt             0      0.00%     56.92% # Class of committed instruction
system.cpu0.commit.op_class_0::SimdFloatAdd            0      0.00%     56.92% # Class of committed instruction
system.cpu0.commit.op_class_0::SimdFloatAlu            0      0.00%     56.92% # Class of committed instruction
system.cpu0.commit.op_class_0::SimdFloatCmp            0      0.00%     56.92% # Class of committed instruction
system.cpu0.commit.op_class_0::SimdFloatCvt            0      0.00%     56.92% # Class of committed instruction
system.cpu0.commit.op_class_0::SimdFloatDiv            0      0.00%     56.92% # Class of committed instruction
system.cpu0.commit.op_class_0::SimdFloatMisc            0      0.00%     56.92% # Class of committed instruction
system.cpu0.commit.op_class_0::SimdFloatMult            0      0.00%     56.92% # Class of committed instruction
system.cpu0.commit.op_class_0::SimdFloatMultAcc            0      0.00%     56.92% # Class of committed instruction
system.cpu0.commit.op_class_0::SimdFloatSqrt            0      0.00%     56.92% # Class of committed instruction
system.cpu0.commit.op_class_0::SimdReduceAdd            0      0.00%     56.92% # Class of committed instruction
system.cpu0.commit.op_class_0::SimdReduceAlu            0      0.00%     56.92% # Class of committed instruction
system.cpu0.commit.op_class_0::SimdReduceCmp            0      0.00%     56.92% # Class of committed instruction
system.cpu0.commit.op_class_0::SimdFloatReduceAdd            0      0.00%     56.92% # Class of committed instruction
system.cpu0.commit.op_class_0::SimdFloatReduceCmp            0      0.00%     56.92% # Class of committed instruction
system.cpu0.commit.op_class_0::SimdAes              0      0.00%     56.92% # Class of committed instruction
system.cpu0.commit.op_class_0::SimdAesMix            0      0.00%     56.92% # Class of committed instruction
system.cpu0.commit.op_class_0::SimdSha1Hash            0      0.00%     56.92% # Class of committed instruction
system.cpu0.commit.op_class_0::SimdSha1Hash2            0      0.00%     56.92% # Class of committed instruction
system.cpu0.commit.op_class_0::SimdSha256Hash            0      0.00%     56.92% # Class of committed instruction
system.cpu0.commit.op_class_0::SimdSha256Hash2            0      0.00%     56.92% # Class of committed instruction
system.cpu0.commit.op_class_0::SimdShaSigma2            0      0.00%     56.92% # Class of committed instruction
system.cpu0.commit.op_class_0::SimdShaSigma3            0      0.00%     56.92% # Class of committed instruction
system.cpu0.commit.op_class_0::SimdPredAlu            0      0.00%     56.92% # Class of committed instruction
system.cpu0.commit.op_class_0::MemRead      695377582     31.20%     88.12% # Class of committed instruction
system.cpu0.commit.op_class_0::MemWrite     264769946     11.88%    100.00% # Class of committed instruction
system.cpu0.commit.op_class_0::FloatMemRead            8      0.00%    100.00% # Class of committed instruction
system.cpu0.commit.op_class_0::FloatMemWrite           16      0.00%    100.00% # Class of committed instruction
system.cpu0.commit.op_class_0::IprAccess            0      0.00%    100.00% # Class of committed instruction
system.cpu0.commit.op_class_0::InstPrefetch            0      0.00%    100.00% # Class of committed instruction
system.cpu0.commit.op_class_0::total       2228751893                       # Class of committed instruction
system.cpu0.commit.refs                     960147552                       # Number of memory references committed
system.cpu0.commit.swp_count                        0                       # Number of s/w prefetches committed
system.cpu0.commit.vec_insts                        0                       # Number of committed Vector instructions.
system.cpu0.committedInsts                 2224944718                       # Number of Instructions Simulated
system.cpu0.committedOps                   2228751893                       # Number of Ops (including micro ops) Simulated
system.cpu0.cpi                              1.921455                       # CPI: Cycles Per Instruction
system.cpu0.cpi_total                        1.921455                       # CPI: Total CPI of All Threads
system.cpu0.decode.BlockedCycles            632365114                       # Number of cycles decode is blocked
system.cpu0.decode.BranchMispred              6281464                       # Number of times decode detected a branch misprediction
system.cpu0.decode.BranchResolved           291662637                       # Number of times decode resolved a branch
system.cpu0.decode.DecodedInsts            2381464028                       # Number of instructions handled by decode
system.cpu0.decode.IdleCycles              1672900464                       # Number of cycles decode is idle
system.cpu0.decode.RunCycles               1658691698                       # Number of cycles decode is running
system.cpu0.decode.SquashCycles              14300147                       # Number of cycles decode is squashing
system.cpu0.decode.SquashedInsts             10948105                       # Number of squashed instructions handled by decode
system.cpu0.decode.UnblockCycles              9212571                       # Number of cycles decode is unblocking
system.cpu0.dtb.accesses                            0                       # DTB accesses
system.cpu0.dtb.hits                                0                       # DTB hits
system.cpu0.dtb.misses                              0                       # DTB misses
system.cpu0.dtb.read_accesses                       0                       # DTB read accesses
system.cpu0.dtb.read_hits                           0                       # DTB read hits
system.cpu0.dtb.read_misses                         0                       # DTB read misses
system.cpu0.dtb.write_accesses                      0                       # DTB write accesses
system.cpu0.dtb.write_hits                          0                       # DTB write hits
system.cpu0.dtb.write_misses                        0                       # DTB write misses
system.cpu0.fetch.Branches                  587328161                       # Number of branches that fetch encountered
system.cpu0.fetch.CacheLines                416931229                       # Number of cache lines fetched
system.cpu0.fetch.Cycles                   2307148348                       # Number of cycles fetch has run and was not squashing or blocked
system.cpu0.fetch.IcacheSquashes              8949853                       # Number of outstanding Icache misses that were squashed
system.cpu0.fetch.IcacheWaitRetryStallCycles          158                       # Number of stall cycles due to full MSHR
system.cpu0.fetch.Insts                    2411702269                       # Number of instructions fetch has processed
system.cpu0.fetch.MiscStallCycles                  37                       # Number of cycles fetch has spent waiting on interrupts, or bad addresses, or out of MSHRs
system.cpu0.fetch.PendingTrapStallCycles           75                       # Number of stall cycles due to pending traps
system.cpu0.fetch.SquashCycles               41126080                       # Number of cycles fetch has spent squashing
system.cpu0.fetch.branchRate                 0.137382                       # Number of branch fetches per cycle
system.cpu0.fetch.icacheStallCycles        1659758336                       # Number of cycles fetch is stalled on an Icache miss
system.cpu0.fetch.predictedBranches         332620444                       # Number of branches that fetch has predicted taken
system.cpu0.fetch.rate                       0.564123                       # Number of inst fetches per cycle
system.cpu0.fetch.rateDist::samples        3987469994                       # Number of instructions fetched each cycle (Total)
system.cpu0.fetch.rateDist::mean             0.606264                       # Number of instructions fetched each cycle (Total)
system.cpu0.fetch.rateDist::stdev            0.887375                       # Number of instructions fetched each cycle (Total)
system.cpu0.fetch.rateDist::underflows              0      0.00%      0.00% # Number of instructions fetched each cycle (Total)
system.cpu0.fetch.rateDist::0              2266878704     56.85%     56.85% # Number of instructions fetched each cycle (Total)
system.cpu0.fetch.rateDist::1              1272956829     31.92%     88.77% # Number of instructions fetched each cycle (Total)
system.cpu0.fetch.rateDist::2               271446427      6.81%     95.58% # Number of instructions fetched each cycle (Total)
system.cpu0.fetch.rateDist::3               142410332      3.57%     99.15% # Number of instructions fetched each cycle (Total)
system.cpu0.fetch.rateDist::4                14868933      0.37%     99.53% # Number of instructions fetched each cycle (Total)
system.cpu0.fetch.rateDist::5                 9973119      0.25%     99.78% # Number of instructions fetched each cycle (Total)
system.cpu0.fetch.rateDist::6                 1318525      0.03%     99.81% # Number of instructions fetched each cycle (Total)
system.cpu0.fetch.rateDist::7                 3809071      0.10%     99.90% # Number of instructions fetched each cycle (Total)
system.cpu0.fetch.rateDist::8                 3808054      0.10%    100.00% # Number of instructions fetched each cycle (Total)
system.cpu0.fetch.rateDist::overflows               0      0.00%    100.00% # Number of instructions fetched each cycle (Total)
system.cpu0.fetch.rateDist::min_value               0                       # Number of instructions fetched each cycle (Total)
system.cpu0.fetch.rateDist::max_value               8                       # Number of instructions fetched each cycle (Total)
system.cpu0.fetch.rateDist::total          3987469994                       # Number of instructions fetched each cycle (Total)
system.cpu0.fp_regfile_reads                       40                       # number of floating regfile reads
system.cpu0.fp_regfile_writes                      23                       # number of floating regfile writes
system.cpu0.idleCycles                      287662241                       # Total number of cycles that the CPU has spent unscheduled due to idling
system.cpu0.iew.branchMispredicts            14467803                       # Number of branch mispredicts detected at execute
system.cpu0.iew.exec_branches               567369966                       # Number of branches executed
system.cpu0.iew.exec_nop                            0                       # number of nop insts executed
system.cpu0.iew.exec_rate                    0.541487                       # Inst execution rate
system.cpu0.iew.exec_refs                  1008558082                       # number of memory reference insts executed
system.cpu0.iew.exec_stores                 274404622                       # Number of stores executed
system.cpu0.iew.exec_swp                            0                       # number of swp insts executed
system.cpu0.iew.iewBlockCycles              540571677                       # Number of cycles IEW is blocking
system.cpu0.iew.iewDispLoadInsts            737044549                       # Number of dispatched load instructions
system.cpu0.iew.iewDispNonSpecInsts           4818729                       # Number of dispatched non-speculative instructions
system.cpu0.iew.iewDispSquashedInsts          5143399                       # Number of squashed instructions skipped by dispatch
system.cpu0.iew.iewDispStoreInsts           280636765                       # Number of dispatched store instructions
system.cpu0.iew.iewDispatchedInsts         2345221934                       # Number of instructions dispatched to IQ
system.cpu0.iew.iewExecLoadInsts            734153460                       # Number of load instructions executed
system.cpu0.iew.iewExecSquashedInsts         12754721                       # Number of squashed instructions skipped in execute
system.cpu0.iew.iewExecutedInsts           2314929713                       # Number of executed instructions
system.cpu0.iew.iewIQFullEvents               2607501                       # Number of times the IQ has become full, causing a stall
system.cpu0.iew.iewIdleCycles                       0                       # Number of cycles IEW is idle
system.cpu0.iew.iewLSQFullEvents              7955967                       # Number of times the LSQ has become full, causing a stall
system.cpu0.iew.iewSquashCycles              14300147                       # Number of cycles IEW is squashing
system.cpu0.iew.iewUnblockCycles             14789371                       # Number of cycles IEW is unblocking
system.cpu0.iew.lsq.thread0.blockedLoads            0                       # Number of blocked loads due to partial load-store forwarding
system.cpu0.iew.lsq.thread0.cacheBlocked       200757                       # Number of times an access to memory failed due to the cache being blocked
system.cpu0.iew.lsq.thread0.forwLoads        33662020                       # Number of loads that had data forwarded from stores
system.cpu0.iew.lsq.thread0.ignoredResponses        73204                       # Number of memory responses ignored because the instruction is squashed
system.cpu0.iew.lsq.thread0.invAddrLoads            0                       # Number of loads ignored due to an invalid address
system.cpu0.iew.lsq.thread0.invAddrSwpfs            0                       # Number of software prefetches ignored due to an invalid address
system.cpu0.iew.lsq.thread0.memOrderViolation        24083                       # Number of memory ordering violations
system.cpu0.iew.lsq.thread0.rescheduledLoads      8673411                       # Number of loads that were rescheduled
system.cpu0.iew.lsq.thread0.squashedLoads     45468833                       # Number of loads squashed
system.cpu0.iew.lsq.thread0.squashedStores     12064929                       # Number of stores squashed
system.cpu0.iew.memOrderViolationEvents         24083                       # Number of memory order violations
system.cpu0.iew.predictedNotTakenIncorrect      2429318                       # Number of branches that were predicted not taken incorrectly
system.cpu0.iew.predictedTakenIncorrect      12038485                       # Number of branches that were predicted taken incorrectly
system.cpu0.iew.wb_consumers                943128089                       # num instructions consuming a value
system.cpu0.iew.wb_count                   2295123289                       # cumulative count of insts written-back
system.cpu0.iew.wb_fanout                    0.897359                       # average fanout of values written-back
system.cpu0.iew.wb_producers                846324243                       # num instructions producing a value
system.cpu0.iew.wb_rate                      0.536854                       # insts written-back per cycle
system.cpu0.iew.wb_sent                    2295275236                       # cumulative count of insts sent to commit
system.cpu0.int_regfile_reads              2826913620                       # number of integer regfile reads
system.cpu0.int_regfile_writes             1470017561                       # number of integer regfile writes
system.cpu0.ipc                              0.520439                       # IPC: Instructions Per Cycle
system.cpu0.ipc_total                        0.520439                       # IPC: Total IPC of All Threads
system.cpu0.iq.FU_type_0::No_OpClass          7611857      0.33%      0.33% # Type of FU issued
system.cpu0.iq.FU_type_0::IntAlu           1281996758     55.08%     55.40% # Type of FU issued
system.cpu0.iq.FU_type_0::IntMult            18327886      0.79%     56.19% # Type of FU issued
system.cpu0.iq.FU_type_0::IntDiv              3802446      0.16%     56.35% # Type of FU issued
system.cpu0.iq.FU_type_0::FloatAdd                  0      0.00%     56.35% # Type of FU issued
system.cpu0.iq.FU_type_0::FloatCmp                  4      0.00%     56.35% # Type of FU issued
system.cpu0.iq.FU_type_0::FloatCvt                 12      0.00%     56.35% # Type of FU issued
system.cpu0.iq.FU_type_0::FloatMult                 0      0.00%     56.35% # Type of FU issued
system.cpu0.iq.FU_type_0::FloatMultAcc              0      0.00%     56.35% # Type of FU issued
system.cpu0.iq.FU_type_0::FloatDiv                  2      0.00%     56.35% # Type of FU issued
system.cpu0.iq.FU_type_0::FloatMisc                 4      0.00%     56.35% # Type of FU issued
system.cpu0.iq.FU_type_0::FloatSqrt                 0      0.00%     56.35% # Type of FU issued
system.cpu0.iq.FU_type_0::SimdAdd                   0      0.00%     56.35% # Type of FU issued
system.cpu0.iq.FU_type_0::SimdAddAcc                0      0.00%     56.35% # Type of FU issued
system.cpu0.iq.FU_type_0::SimdAlu                   0      0.00%     56.35% # Type of FU issued
system.cpu0.iq.FU_type_0::SimdCmp                   0      0.00%     56.35% # Type of FU issued
system.cpu0.iq.FU_type_0::SimdCvt                   0      0.00%     56.35% # Type of FU issued
system.cpu0.iq.FU_type_0::SimdMisc                  0      0.00%     56.35% # Type of FU issued
system.cpu0.iq.FU_type_0::SimdMult                  0      0.00%     56.35% # Type of FU issued
system.cpu0.iq.FU_type_0::SimdMultAcc               0      0.00%     56.35% # Type of FU issued
system.cpu0.iq.FU_type_0::SimdShift                 0      0.00%     56.35% # Type of FU issued
system.cpu0.iq.FU_type_0::SimdShiftAcc              0      0.00%     56.35% # Type of FU issued
system.cpu0.iq.FU_type_0::SimdDiv                   0      0.00%     56.35% # Type of FU issued
system.cpu0.iq.FU_type_0::SimdSqrt                  0      0.00%     56.35% # Type of FU issued
system.cpu0.iq.FU_type_0::SimdFloatAdd              0      0.00%     56.35% # Type of FU issued
system.cpu0.iq.FU_type_0::SimdFloatAlu              0      0.00%     56.35% # Type of FU issued
system.cpu0.iq.FU_type_0::SimdFloatCmp              0      0.00%     56.35% # Type of FU issued
system.cpu0.iq.FU_type_0::SimdFloatCvt              0      0.00%     56.35% # Type of FU issued
system.cpu0.iq.FU_type_0::SimdFloatDiv              0      0.00%     56.35% # Type of FU issued
system.cpu0.iq.FU_type_0::SimdFloatMisc             0      0.00%     56.35% # Type of FU issued
system.cpu0.iq.FU_type_0::SimdFloatMult             0      0.00%     56.35% # Type of FU issued
system.cpu0.iq.FU_type_0::SimdFloatMultAcc            0      0.00%     56.35% # Type of FU issued
system.cpu0.iq.FU_type_0::SimdFloatSqrt             0      0.00%     56.35% # Type of FU issued
system.cpu0.iq.FU_type_0::SimdReduceAdd             0      0.00%     56.35% # Type of FU issued
system.cpu0.iq.FU_type_0::SimdReduceAlu             0      0.00%     56.35% # Type of FU issued
system.cpu0.iq.FU_type_0::SimdReduceCmp             0      0.00%     56.35% # Type of FU issued
system.cpu0.iq.FU_type_0::SimdFloatReduceAdd            0      0.00%     56.35% # Type of FU issued
system.cpu0.iq.FU_type_0::SimdFloatReduceCmp            0      0.00%     56.35% # Type of FU issued
system.cpu0.iq.FU_type_0::SimdAes                   0      0.00%     56.35% # Type of FU issued
system.cpu0.iq.FU_type_0::SimdAesMix                0      0.00%     56.35% # Type of FU issued
system.cpu0.iq.FU_type_0::SimdSha1Hash              0      0.00%     56.35% # Type of FU issued
system.cpu0.iq.FU_type_0::SimdSha1Hash2             0      0.00%     56.35% # Type of FU issued
system.cpu0.iq.FU_type_0::SimdSha256Hash            0      0.00%     56.35% # Type of FU issued
system.cpu0.iq.FU_type_0::SimdSha256Hash2            0      0.00%     56.35% # Type of FU issued
system.cpu0.iq.FU_type_0::SimdShaSigma2             0      0.00%     56.35% # Type of FU issued
system.cpu0.iq.FU_type_0::SimdShaSigma3             0      0.00%     56.35% # Type of FU issued
system.cpu0.iq.FU_type_0::SimdPredAlu               0      0.00%     56.35% # Type of FU issued
system.cpu0.iq.FU_type_0::MemRead           742112100     31.88%     88.24% # Type of FU issued
system.cpu0.iq.FU_type_0::MemWrite          273833341     11.76%    100.00% # Type of FU issued
system.cpu0.iq.FU_type_0::FloatMemRead              9      0.00%    100.00% # Type of FU issued
system.cpu0.iq.FU_type_0::FloatMemWrite            16      0.00%    100.00% # Type of FU issued
system.cpu0.iq.FU_type_0::IprAccess                 0      0.00%    100.00% # Type of FU issued
system.cpu0.iq.FU_type_0::InstPrefetch              0      0.00%    100.00% # Type of FU issued
system.cpu0.iq.FU_type_0::total            2327684435                       # Type of FU issued
system.cpu0.iq.fp_alu_accesses                     49                       # Number of floating point alu accesses
system.cpu0.iq.fp_inst_queue_reads                 96                       # Number of floating instruction queue reads
system.cpu0.iq.fp_inst_queue_wakeup_accesses           47                       # Number of floating instruction queue wakeup accesses
system.cpu0.iq.fp_inst_queue_writes               268                       # Number of floating instruction queue writes
system.cpu0.iq.fu_busy_cnt                    4526500                       # FU busy when requested
system.cpu0.iq.fu_busy_rate                  0.001945                       # FU busy rate (busy events/executed inst)
system.cpu0.iq.fu_full::No_OpClass                  0      0.00%      0.00% # attempts to use FU when none available
system.cpu0.iq.fu_full::IntAlu                 754976     16.68%     16.68% # attempts to use FU when none available
system.cpu0.iq.fu_full::IntMult                     0      0.00%     16.68% # attempts to use FU when none available
system.cpu0.iq.fu_full::IntDiv                      0      0.00%     16.68% # attempts to use FU when none available
system.cpu0.iq.fu_full::FloatAdd                    0      0.00%     16.68% # attempts to use FU when none available
system.cpu0.iq.fu_full::FloatCmp                    0      0.00%     16.68% # attempts to use FU when none available
system.cpu0.iq.fu_full::FloatCvt                    0      0.00%     16.68% # attempts to use FU when none available
system.cpu0.iq.fu_full::FloatMult                   0      0.00%     16.68% # attempts to use FU when none available
system.cpu0.iq.fu_full::FloatMultAcc                0      0.00%     16.68% # attempts to use FU when none available
system.cpu0.iq.fu_full::FloatDiv                    0      0.00%     16.68% # attempts to use FU when none available
system.cpu0.iq.fu_full::FloatMisc                   0      0.00%     16.68% # attempts to use FU when none available
system.cpu0.iq.fu_full::FloatSqrt                   0      0.00%     16.68% # attempts to use FU when none available
system.cpu0.iq.fu_full::SimdAdd                     0      0.00%     16.68% # attempts to use FU when none available
system.cpu0.iq.fu_full::SimdAddAcc                  0      0.00%     16.68% # attempts to use FU when none available
system.cpu0.iq.fu_full::SimdAlu                     0      0.00%     16.68% # attempts to use FU when none available
system.cpu0.iq.fu_full::SimdCmp                     0      0.00%     16.68% # attempts to use FU when none available
system.cpu0.iq.fu_full::SimdCvt                     0      0.00%     16.68% # attempts to use FU when none available
system.cpu0.iq.fu_full::SimdMisc                    0      0.00%     16.68% # attempts to use FU when none available
system.cpu0.iq.fu_full::SimdMult                    0      0.00%     16.68% # attempts to use FU when none available
system.cpu0.iq.fu_full::SimdMultAcc                 0      0.00%     16.68% # attempts to use FU when none available
system.cpu0.iq.fu_full::SimdShift                   0      0.00%     16.68% # attempts to use FU when none available
system.cpu0.iq.fu_full::SimdShiftAcc                0      0.00%     16.68% # attempts to use FU when none available
system.cpu0.iq.fu_full::SimdDiv                     0      0.00%     16.68% # attempts to use FU when none available
system.cpu0.iq.fu_full::SimdSqrt                    0      0.00%     16.68% # attempts to use FU when none available
system.cpu0.iq.fu_full::SimdFloatAdd                0      0.00%     16.68% # attempts to use FU when none available
system.cpu0.iq.fu_full::SimdFloatAlu                0      0.00%     16.68% # attempts to use FU when none available
system.cpu0.iq.fu_full::SimdFloatCmp                0      0.00%     16.68% # attempts to use FU when none available
system.cpu0.iq.fu_full::SimdFloatCvt                0      0.00%     16.68% # attempts to use FU when none available
system.cpu0.iq.fu_full::SimdFloatDiv                0      0.00%     16.68% # attempts to use FU when none available
system.cpu0.iq.fu_full::SimdFloatMisc               0      0.00%     16.68% # attempts to use FU when none available
system.cpu0.iq.fu_full::SimdFloatMult               0      0.00%     16.68% # attempts to use FU when none available
system.cpu0.iq.fu_full::SimdFloatMultAcc            0      0.00%     16.68% # attempts to use FU when none available
system.cpu0.iq.fu_full::SimdFloatSqrt               0      0.00%     16.68% # attempts to use FU when none available
system.cpu0.iq.fu_full::SimdReduceAdd               0      0.00%     16.68% # attempts to use FU when none available
system.cpu0.iq.fu_full::SimdReduceAlu               0      0.00%     16.68% # attempts to use FU when none available
system.cpu0.iq.fu_full::SimdReduceCmp               0      0.00%     16.68% # attempts to use FU when none available
system.cpu0.iq.fu_full::SimdFloatReduceAdd            0      0.00%     16.68% # attempts to use FU when none available
system.cpu0.iq.fu_full::SimdFloatReduceCmp            0      0.00%     16.68% # attempts to use FU when none available
system.cpu0.iq.fu_full::SimdAes                     0      0.00%     16.68% # attempts to use FU when none available
system.cpu0.iq.fu_full::SimdAesMix                  0      0.00%     16.68% # attempts to use FU when none available
system.cpu0.iq.fu_full::SimdSha1Hash                0      0.00%     16.68% # attempts to use FU when none available
system.cpu0.iq.fu_full::SimdSha1Hash2               0      0.00%     16.68% # attempts to use FU when none available
system.cpu0.iq.fu_full::SimdSha256Hash              0      0.00%     16.68% # attempts to use FU when none available
system.cpu0.iq.fu_full::SimdSha256Hash2             0      0.00%     16.68% # attempts to use FU when none available
system.cpu0.iq.fu_full::SimdShaSigma2               0      0.00%     16.68% # attempts to use FU when none available
system.cpu0.iq.fu_full::SimdShaSigma3               0      0.00%     16.68% # attempts to use FU when none available
system.cpu0.iq.fu_full::SimdPredAlu                 0      0.00%     16.68% # attempts to use FU when none available
system.cpu0.iq.fu_full::MemRead               3379555     74.66%     91.34% # attempts to use FU when none available
system.cpu0.iq.fu_full::MemWrite               391967      8.66%    100.00% # attempts to use FU when none available
system.cpu0.iq.fu_full::FloatMemRead                0      0.00%    100.00% # attempts to use FU when none available
system.cpu0.iq.fu_full::FloatMemWrite               2      0.00%    100.00% # attempts to use FU when none available
system.cpu0.iq.fu_full::IprAccess                   0      0.00%    100.00% # attempts to use FU when none available
system.cpu0.iq.fu_full::InstPrefetch                0      0.00%    100.00% # attempts to use FU when none available
system.cpu0.iq.int_alu_accesses            2324599029                       # Number of integer alu accesses
system.cpu0.iq.int_inst_queue_reads        8647600513                       # Number of integer instruction queue reads
system.cpu0.iq.int_inst_queue_wakeup_accesses   2295123242                       # Number of integer instruction queue wakeup accesses
system.cpu0.iq.int_inst_queue_writes       2461714507                       # Number of integer instruction queue writes
system.cpu0.iq.iqInstsAdded                2330859766                       # Number of instructions added to the IQ (excludes non-spec)
system.cpu0.iq.iqInstsIssued               2327684435                       # Number of instructions issued
system.cpu0.iq.iqNonSpecInstsAdded           14362168                       # Number of non-speculative instructions added to the IQ
system.cpu0.iq.iqSquashedInstsExamined      116470037                       # Number of squashed instructions iterated over during squash; mainly for profiling
system.cpu0.iq.iqSquashedInstsIssued           235246                       # Number of squashed instructions issued
system.cpu0.iq.iqSquashedNonSpecRemoved       2942606                       # Number of squashed non-spec instructions that were removed
system.cpu0.iq.iqSquashedOperandsExamined     53183210                       # Number of squashed operands that are examined and possibly removed from graph
system.cpu0.iq.issued_per_cycle::samples   3987469994                       # Number of insts issued each cycle
system.cpu0.iq.issued_per_cycle::mean        0.583750                       # Number of insts issued each cycle
system.cpu0.iq.issued_per_cycle::stdev       0.798004                       # Number of insts issued each cycle
system.cpu0.iq.issued_per_cycle::underflows            0      0.00%      0.00% # Number of insts issued each cycle
system.cpu0.iq.issued_per_cycle::0         2287089140     57.36%     57.36% # Number of insts issued each cycle
system.cpu0.iq.issued_per_cycle::1         1187404489     29.78%     87.14% # Number of insts issued each cycle
system.cpu0.iq.issued_per_cycle::2          427459054     10.72%     97.86% # Number of insts issued each cycle
system.cpu0.iq.issued_per_cycle::3           67073924      1.68%     99.54% # Number of insts issued each cycle
system.cpu0.iq.issued_per_cycle::4           11245949      0.28%     99.82% # Number of insts issued each cycle
system.cpu0.iq.issued_per_cycle::5            4992774      0.13%     99.94% # Number of insts issued each cycle
system.cpu0.iq.issued_per_cycle::6            1481096      0.04%     99.98% # Number of insts issued each cycle
system.cpu0.iq.issued_per_cycle::7             482720      0.01%     99.99% # Number of insts issued each cycle
system.cpu0.iq.issued_per_cycle::8             240848      0.01%    100.00% # Number of insts issued each cycle
system.cpu0.iq.issued_per_cycle::overflows            0      0.00%    100.00% # Number of insts issued each cycle
system.cpu0.iq.issued_per_cycle::min_value            0                       # Number of insts issued each cycle
system.cpu0.iq.issued_per_cycle::max_value            8                       # Number of insts issued each cycle
system.cpu0.iq.issued_per_cycle::total     3987469994                       # Number of insts issued each cycle
system.cpu0.iq.rate                          0.544471                       # Inst issue rate
system.cpu0.iq.vec_alu_accesses                     0                       # Number of vector alu accesses
system.cpu0.iq.vec_inst_queue_reads                 0                       # Number of vector instruction queue reads
system.cpu0.iq.vec_inst_queue_wakeup_accesses            0                       # Number of vector instruction queue wakeup accesses
system.cpu0.iq.vec_inst_queue_writes                0                       # Number of vector instruction queue writes
system.cpu0.itb.accesses                            0                       # DTB accesses
system.cpu0.itb.hits                                0                       # DTB hits
system.cpu0.itb.misses                              0                       # DTB misses
system.cpu0.itb.read_accesses                       0                       # DTB read accesses
system.cpu0.itb.read_hits                           0                       # DTB read hits
system.cpu0.itb.read_misses                         0                       # DTB read misses
system.cpu0.itb.write_accesses                      0                       # DTB write accesses
system.cpu0.itb.write_hits                          0                       # DTB write hits
system.cpu0.itb.write_misses                        0                       # DTB write misses
system.cpu0.memDep0.conflictingLoads         39920685                       # Number of conflicting loads.
system.cpu0.memDep0.conflictingStores         5510413                       # Number of conflicting stores.
system.cpu0.memDep0.insertedLoads           737044549                       # Number of loads inserted to the mem dependence unit.
system.cpu0.memDep0.insertedStores          280636765                       # Number of stores inserted to the mem dependence unit.
system.cpu0.misc_regfile_reads                   2909                       # number of misc regfile reads
system.cpu0.misc_regfile_writes                    22                       # number of misc regfile writes
system.cpu0.numCycles                      4275132235                       # number of cpu cycles simulated
system.cpu0.numWorkItemsCompleted                   0                       # number of work items this cpu completed
system.cpu0.numWorkItemsStarted                     0                       # number of work items this cpu started
system.cpu0.quiesceCycles                     4003564                       # Total number of cycles that CPU has spent quiesced or waiting for an interrupt
system.cpu0.rename.BlockCycles              578115008                       # Number of cycles rename is blocking
system.cpu0.rename.CommittedMaps           1421429718                       # Number of HB maps that are committed
system.cpu0.rename.IQFullEvents              21444523                       # Number of times rename has blocked due to IQ full
system.cpu0.rename.IdleCycles              1689486119                       # Number of cycles rename is idle
system.cpu0.rename.LQFullEvents              17066473                       # Number of times rename has blocked due to LQ full
system.cpu0.rename.ROBFullEvents                56753                       # Number of times rename has blocked due to ROB full
system.cpu0.rename.RenameLookups           2893267787                       # Number of register rename lookups that rename has made
system.cpu0.rename.RenamedInsts            2366364580                       # Number of instructions processed by rename
system.cpu0.rename.RenamedOperands         1520507656                       # Number of destination operands rename has renamed
system.cpu0.rename.RunCycles               1648687157                       # Number of cycles rename is running
system.cpu0.rename.SQFullEvents              16642397                       # Number of times rename has blocked due to SQ full
system.cpu0.rename.SquashCycles              14300147                       # Number of cycles rename is squashing
system.cpu0.rename.UnblockCycles             56651547                       # Number of cycles rename is unblocking
system.cpu0.rename.UndoneMaps                99077930                       # Number of HB maps that are undone due to squashing
system.cpu0.rename.fp_rename_lookups               40                       # Number of floating rename lookups
system.cpu0.rename.int_rename_lookups      2893267747                       # Number of integer rename lookups
system.cpu0.rename.serializeStallCycles        230016                       # count of cycles rename stalled for serializing inst
system.cpu0.rename.serializingInsts              8911                       # count of serializing insts renamed
system.cpu0.rename.skidInsts                 48443054                       # count of insts added to the skid buffer
system.cpu0.rename.tempSerializingInsts          8901                       # count of temporary serializing insts renamed
system.cpu0.rob.rob_reads                  6247008518                       # The number of ROB reads
system.cpu0.rob.rob_writes                 4714690790                       # The number of ROB writes
system.cpu0.timesIdled                       53947688                       # Number of times that the entire CPU went into an idle state and unscheduled itself
system.cpu0.workload.numSyscalls                 2876                       # Number of system calls
system.cpu1.branchPred.BTBCorrect                   0                       # Number of correct BTB predictions (this stat may not work properly.
system.cpu1.branchPred.BTBHitPct            93.633081                       # BTB Hit Percentage
system.cpu1.branchPred.BTBHits               17702392                       # Number of BTB hits
system.cpu1.branchPred.BTBLookups            18906130                       # Number of BTB lookups
system.cpu1.branchPred.RASInCorrect                 0                       # Number of incorrect RAS predictions.
system.cpu1.branchPred.condIncorrect          1762736                       # Number of conditional branches incorrect
system.cpu1.branchPred.condPredicted         32121096                       # Number of conditional branches predicted
system.cpu1.branchPred.indirectHits            904190                       # Number of indirect target hits.
system.cpu1.branchPred.indirectLookups         911849                       # Number of indirect predictor lookups.
system.cpu1.branchPred.indirectMisses            7659                       # Number of indirect misses.
system.cpu1.branchPred.lookups               35241705                       # Number of BP lookups
system.cpu1.branchPred.usedRAS                      0                       # Number of times the RAS was used to get a target.
system.cpu1.branchPredindirectMispredicted        46838                       # Number of mispredicted indirect branches.
system.cpu1.commit.amos                       3801574                       # Number of atomic instructions committed
system.cpu1.commit.branchMispredicts          1362738                       # The number of times a branch was mispredicted
system.cpu1.commit.branches                  29518991                       # Number of branches committed
system.cpu1.commit.bw_lim_events              3103630                       # number cycles where commit BW limit reached
system.cpu1.commit.commitNonSpecStalls       11405413                       # The number of times commit has been forced to stall to communicate backwards
system.cpu1.commit.commitSquashedInsts       13809056                       # The number of squashed insts skipped by commit
system.cpu1.commit.committedInsts           130076432                       # Number of instructions committed
system.cpu1.commit.committedOps             133878188                       # Number of ops (including micro ops) committed
system.cpu1.commit.committed_per_cycle::samples    643143647                       # Number of insts commited each cycle
system.cpu1.commit.committed_per_cycle::mean     0.208162                       # Number of insts commited each cycle
system.cpu1.commit.committed_per_cycle::stdev     0.893467                       # Number of insts commited each cycle
system.cpu1.commit.committed_per_cycle::underflows            0      0.00%      0.00% # Number of insts commited each cycle
system.cpu1.commit.committed_per_cycle::0    587642098     91.37%     91.37% # Number of insts commited each cycle
system.cpu1.commit.committed_per_cycle::1     27481527      4.27%     95.64% # Number of insts commited each cycle
system.cpu1.commit.committed_per_cycle::2      8756160      1.36%     97.00% # Number of insts commited each cycle
system.cpu1.commit.committed_per_cycle::3      9131371      1.42%     98.42% # Number of insts commited each cycle
system.cpu1.commit.committed_per_cycle::4      2528643      0.39%     98.82% # Number of insts commited each cycle
system.cpu1.commit.committed_per_cycle::5       701874      0.11%     98.93% # Number of insts commited each cycle
system.cpu1.commit.committed_per_cycle::6      3551162      0.55%     99.48% # Number of insts commited each cycle
system.cpu1.commit.committed_per_cycle::7       247182      0.04%     99.52% # Number of insts commited each cycle
system.cpu1.commit.committed_per_cycle::8      3103630      0.48%    100.00% # Number of insts commited each cycle
system.cpu1.commit.committed_per_cycle::overflows            0      0.00%    100.00% # Number of insts commited each cycle
system.cpu1.commit.committed_per_cycle::min_value            0                       # Number of insts commited each cycle
system.cpu1.commit.committed_per_cycle::max_value            8                       # Number of insts commited each cycle
system.cpu1.commit.committed_per_cycle::total    643143647                       # Number of insts commited each cycle
system.cpu1.commit.fp_insts                        12                       # Number of committed floating point instructions.
system.cpu1.commit.function_calls             1457335                       # Number of function calls committed.
system.cpu1.commit.int_insts                125282362                       # Number of committed integer instructions.
system.cpu1.commit.loads                     36891680                       # Number of loads committed
system.cpu1.commit.membars                    7603264                       # Number of memory barriers committed
system.cpu1.commit.op_class_0::No_OpClass      7603264      5.68%      5.68% # Class of committed instruction
system.cpu1.commit.op_class_0::IntAlu        77457610     57.86%     63.54% # Class of committed instruction
system.cpu1.commit.op_class_0::IntMult             44      0.00%     63.54% # Class of committed instruction
system.cpu1.commit.op_class_0::IntDiv              88      0.00%     63.54% # Class of committed instruction
system.cpu1.commit.op_class_0::FloatAdd             0      0.00%     63.54% # Class of committed instruction
system.cpu1.commit.op_class_0::FloatCmp             0      0.00%     63.54% # Class of committed instruction
system.cpu1.commit.op_class_0::FloatCvt             0      0.00%     63.54% # Class of committed instruction
system.cpu1.commit.op_class_0::FloatMult            0      0.00%     63.54% # Class of committed instruction
system.cpu1.commit.op_class_0::FloatMultAcc            0      0.00%     63.54% # Class of committed instruction
system.cpu1.commit.op_class_0::FloatDiv             0      0.00%     63.54% # Class of committed instruction
system.cpu1.commit.op_class_0::FloatMisc            0      0.00%     63.54% # Class of committed instruction
system.cpu1.commit.op_class_0::FloatSqrt            0      0.00%     63.54% # Class of committed instruction
system.cpu1.commit.op_class_0::SimdAdd              0      0.00%     63.54% # Class of committed instruction
system.cpu1.commit.op_class_0::SimdAddAcc            0      0.00%     63.54% # Class of committed instruction
system.cpu1.commit.op_class_0::SimdAlu              0      0.00%     63.54% # Class of committed instruction
system.cpu1.commit.op_class_0::SimdCmp              0      0.00%     63.54% # Class of committed instruction
system.cpu1.commit.op_class_0::SimdCvt              0      0.00%     63.54% # Class of committed instruction
system.cpu1.commit.op_class_0::SimdMisc             0      0.00%     63.54% # Class of committed instruction
system.cpu1.commit.op_class_0::SimdMult             0      0.00%     63.54% # Class of committed instruction
system.cpu1.commit.op_class_0::SimdMultAcc            0      0.00%     63.54% # Class of committed instruction
system.cpu1.commit.op_class_0::SimdShift            0      0.00%     63.54% # Class of committed instruction
system.cpu1.commit.op_class_0::SimdShiftAcc            0      0.00%     63.54% # Class of committed instruction
system.cpu1.commit.op_class_0::SimdDiv              0      0.00%     63.54% # Class of committed instruction
system.cpu1.commit.op_class_0::SimdSqrt             0      0.00%     63.54% # Class of committed instruction
system.cpu1.commit.op_class_0::SimdFloatAdd            0      0.00%     63.54% # Class of committed instruction
system.cpu1.commit.op_class_0::SimdFloatAlu            0      0.00%     63.54% # Class of committed instruction
system.cpu1.commit.op_class_0::SimdFloatCmp            0      0.00%     63.54% # Class of committed instruction
system.cpu1.commit.op_class_0::SimdFloatCvt            0      0.00%     63.54% # Class of committed instruction
system.cpu1.commit.op_class_0::SimdFloatDiv            0      0.00%     63.54% # Class of committed instruction
system.cpu1.commit.op_class_0::SimdFloatMisc            0      0.00%     63.54% # Class of committed instruction
system.cpu1.commit.op_class_0::SimdFloatMult            0      0.00%     63.54% # Class of committed instruction
system.cpu1.commit.op_class_0::SimdFloatMultAcc            0      0.00%     63.54% # Class of committed instruction
system.cpu1.commit.op_class_0::SimdFloatSqrt            0      0.00%     63.54% # Class of committed instruction
system.cpu1.commit.op_class_0::SimdReduceAdd            0      0.00%     63.54% # Class of committed instruction
system.cpu1.commit.op_class_0::SimdReduceAlu            0      0.00%     63.54% # Class of committed instruction
system.cpu1.commit.op_class_0::SimdReduceCmp            0      0.00%     63.54% # Class of committed instruction
system.cpu1.commit.op_class_0::SimdFloatReduceAdd            0      0.00%     63.54% # Class of committed instruction
system.cpu1.commit.op_class_0::SimdFloatReduceCmp            0      0.00%     63.54% # Class of committed instruction
system.cpu1.commit.op_class_0::SimdAes              0      0.00%     63.54% # Class of committed instruction
system.cpu1.commit.op_class_0::SimdAesMix            0      0.00%     63.54% # Class of committed instruction
system.cpu1.commit.op_class_0::SimdSha1Hash            0      0.00%     63.54% # Class of committed instruction
system.cpu1.commit.op_class_0::SimdSha1Hash2            0      0.00%     63.54% # Class of committed instruction
system.cpu1.commit.op_class_0::SimdSha256Hash            0      0.00%     63.54% # Class of committed instruction
system.cpu1.commit.op_class_0::SimdSha256Hash2            0      0.00%     63.54% # Class of committed instruction
system.cpu1.commit.op_class_0::SimdShaSigma2            0      0.00%     63.54% # Class of committed instruction
system.cpu1.commit.op_class_0::SimdShaSigma3            0      0.00%     63.54% # Class of committed instruction
system.cpu1.commit.op_class_0::SimdPredAlu            0      0.00%     63.54% # Class of committed instruction
system.cpu1.commit.op_class_0::MemRead       40693254     30.40%     93.93% # Class of committed instruction
system.cpu1.commit.op_class_0::MemWrite       8123916      6.07%    100.00% # Class of committed instruction
system.cpu1.commit.op_class_0::FloatMemRead            0      0.00%    100.00% # Class of committed instruction
system.cpu1.commit.op_class_0::FloatMemWrite           12      0.00%    100.00% # Class of committed instruction
system.cpu1.commit.op_class_0::IprAccess            0      0.00%    100.00% # Class of committed instruction
system.cpu1.commit.op_class_0::InstPrefetch            0      0.00%    100.00% # Class of committed instruction
system.cpu1.commit.op_class_0::total        133878188                       # Class of committed instruction
system.cpu1.commit.refs                      48817182                       # Number of memory references committed
system.cpu1.commit.swp_count                        0                       # Number of s/w prefetches committed
system.cpu1.commit.vec_insts                        0                       # Number of committed Vector instructions.
system.cpu1.committedInsts                  130076432                       # Number of Instructions Simulated
system.cpu1.committedOps                    133878188                       # Number of Ops (including micro ops) Simulated
system.cpu1.cpi                              4.971602                       # CPI: Cycles Per Instruction
system.cpu1.cpi_total                        4.971602                       # CPI: Total CPI of All Threads
system.cpu1.decode.BlockedCycles            567268767                       # Number of cycles decode is blocked
system.cpu1.decode.BranchMispred               417695                       # Number of times decode detected a branch misprediction
system.cpu1.decode.BranchResolved            17090486                       # Number of times decode resolved a branch
system.cpu1.decode.DecodedInsts             153270410                       # Number of instructions handled by decode
system.cpu1.decode.IdleCycles                17762614                       # Number of cycles decode is idle
system.cpu1.decode.RunCycles                 50761604                       # Number of cycles decode is running
system.cpu1.decode.SquashCycles               1363925                       # Number of cycles decode is squashing
system.cpu1.decode.SquashedInsts              1105561                       # Number of squashed instructions handled by decode
system.cpu1.decode.UnblockCycles              8626915                       # Number of cycles decode is unblocking
system.cpu1.dtb.accesses                            0                       # DTB accesses
system.cpu1.dtb.hits                                0                       # DTB hits
system.cpu1.dtb.misses                              0                       # DTB misses
system.cpu1.dtb.read_accesses                       0                       # DTB read accesses
system.cpu1.dtb.read_hits                           0                       # DTB read hits
system.cpu1.dtb.read_misses                         0                       # DTB read misses
system.cpu1.dtb.write_accesses                      0                       # DTB write accesses
system.cpu1.dtb.write_hits                          0                       # DTB write hits
system.cpu1.dtb.write_misses                        0                       # DTB write misses
system.cpu1.fetch.Branches                   35241705                       # Number of branches that fetch encountered
system.cpu1.fetch.CacheLines                 19556991                       # Number of cache lines fetched
system.cpu1.fetch.Cycles                    623237360                       # Number of cycles fetch has run and was not squashing or blocked
system.cpu1.fetch.IcacheSquashes               142021                       # Number of outstanding Icache misses that were squashed
system.cpu1.fetch.Insts                     154042474                       # Number of instructions fetch has processed
system.cpu1.fetch.MiscStallCycles                   1                       # Number of cycles fetch has spent waiting on interrupts, or bad addresses, or out of MSHRs
system.cpu1.fetch.SquashCycles                3527846                       # Number of cycles fetch has spent squashing
system.cpu1.fetch.branchRate                 0.054496                       # Number of branch fetches per cycle
system.cpu1.fetch.icacheStallCycles          20782541                       # Number of cycles fetch is stalled on an Icache miss
system.cpu1.fetch.predictedBranches          18606582                       # Number of branches that fetch has predicted taken
system.cpu1.fetch.rate                       0.238202                       # Number of inst fetches per cycle
system.cpu1.fetch.rateDist::samples         645783825                       # Number of instructions fetched each cycle (Total)
system.cpu1.fetch.rateDist::mean             0.244424                       # Number of instructions fetched each cycle (Total)
system.cpu1.fetch.rateDist::stdev            0.687655                       # Number of instructions fetched each cycle (Total)
system.cpu1.fetch.rateDist::underflows              0      0.00%      0.00% # Number of instructions fetched each cycle (Total)
system.cpu1.fetch.rateDist::0               551211282     85.36%     85.36% # Number of instructions fetched each cycle (Total)
system.cpu1.fetch.rateDist::1                53777435      8.33%     93.68% # Number of instructions fetched each cycle (Total)
system.cpu1.fetch.rateDist::2                24827459      3.84%     97.53% # Number of instructions fetched each cycle (Total)
system.cpu1.fetch.rateDist::3                10183153      1.58%     99.10% # Number of instructions fetched each cycle (Total)
system.cpu1.fetch.rateDist::4                 5125380      0.79%     99.90% # Number of instructions fetched each cycle (Total)
system.cpu1.fetch.rateDist::5                  594573      0.09%     99.99% # Number of instructions fetched each cycle (Total)
system.cpu1.fetch.rateDist::6                   63648      0.01%    100.00% # Number of instructions fetched each cycle (Total)
system.cpu1.fetch.rateDist::7                     163      0.00%    100.00% # Number of instructions fetched each cycle (Total)
system.cpu1.fetch.rateDist::8                     732      0.00%    100.00% # Number of instructions fetched each cycle (Total)
system.cpu1.fetch.rateDist::overflows               0      0.00%    100.00% # Number of instructions fetched each cycle (Total)
system.cpu1.fetch.rateDist::min_value               0                       # Number of instructions fetched each cycle (Total)
system.cpu1.fetch.rateDist::max_value               8                       # Number of instructions fetched each cycle (Total)
system.cpu1.fetch.rateDist::total           645783825                       # Number of instructions fetched each cycle (Total)
system.cpu1.fp_regfile_reads                       12                       # number of floating regfile reads
system.cpu1.idleCycles                         904423                       # Total number of cycles that the CPU has spent unscheduled due to idling
system.cpu1.iew.branchMispredicts             1480654                       # Number of branch mispredicts detected at execute
system.cpu1.iew.exec_branches                31348247                       # Number of branches executed
system.cpu1.iew.exec_nop                            0                       # number of nop insts executed
system.cpu1.iew.exec_rate                    0.221824                       # Inst execution rate
system.cpu1.iew.exec_refs                    51822406                       # number of memory reference insts executed
system.cpu1.iew.exec_stores                  12330898                       # Number of stores executed
system.cpu1.iew.exec_swp                            0                       # number of swp insts executed
system.cpu1.iew.iewBlockCycles              490083566                       # Number of cycles IEW is blocking
system.cpu1.iew.iewDispLoadInsts             39979231                       # Number of dispatched load instructions
system.cpu1.iew.iewDispNonSpecInsts           3802308                       # Number of dispatched non-speculative instructions
system.cpu1.iew.iewDispSquashedInsts          1172968                       # Number of squashed instructions skipped by dispatch
system.cpu1.iew.iewDispStoreInsts            12637356                       # Number of dispatched store instructions
system.cpu1.iew.iewDispatchedInsts          147675497                       # Number of instructions dispatched to IQ
system.cpu1.iew.iewExecLoadInsts             39491508                       # Number of load instructions executed
system.cpu1.iew.iewExecSquashedInsts          1526423                       # Number of squashed instructions skipped in execute
system.cpu1.iew.iewExecutedInsts            143451193                       # Number of executed instructions
system.cpu1.iew.iewIQFullEvents               2314804                       # Number of times the IQ has become full, causing a stall
system.cpu1.iew.iewIdleCycles                       0                       # Number of cycles IEW is idle
system.cpu1.iew.iewLSQFullEvents              3370091                       # Number of times the LSQ has become full, causing a stall
system.cpu1.iew.iewSquashCycles               1363925                       # Number of cycles IEW is squashing
system.cpu1.iew.iewUnblockCycles             10341801                       # Number of cycles IEW is unblocking
system.cpu1.iew.lsq.thread0.blockedLoads            0                       # Number of blocked loads due to partial load-store forwarding
system.cpu1.iew.lsq.thread0.cacheBlocked        46229                       # Number of times an access to memory failed due to the cache being blocked
system.cpu1.iew.lsq.thread0.forwLoads          983858                       # Number of loads that had data forwarded from stores
system.cpu1.iew.lsq.thread0.ignoredResponses        30278                       # Number of memory responses ignored because the instruction is squashed
system.cpu1.iew.lsq.thread0.invAddrLoads            0                       # Number of loads ignored due to an invalid address
system.cpu1.iew.lsq.thread0.invAddrSwpfs            0                       # Number of software prefetches ignored due to an invalid address
system.cpu1.iew.lsq.thread0.memOrderViolation         1366                       # Number of memory ordering violations
system.cpu1.iew.lsq.thread0.rescheduledLoads         3575                       # Number of loads that were rescheduled
system.cpu1.iew.lsq.thread0.squashedLoads      3087551                       # Number of loads squashed
system.cpu1.iew.lsq.thread0.squashedStores       711854                       # Number of stores squashed
system.cpu1.iew.memOrderViolationEvents          1366                       # Number of memory order violations
system.cpu1.iew.predictedNotTakenIncorrect       503415                       # Number of branches that were predicted not taken incorrectly
system.cpu1.iew.predictedTakenIncorrect        977239                       # Number of branches that were predicted taken incorrectly
system.cpu1.iew.wb_consumers                 81550845                       # num instructions consuming a value
system.cpu1.iew.wb_count                    142402153                       # cumulative count of insts written-back
system.cpu1.iew.wb_fanout                    0.860990                       # average fanout of values written-back
system.cpu1.iew.wb_producers                 70214425                       # num instructions producing a value
system.cpu1.iew.wb_rate                      0.220202                       # insts written-back per cycle
system.cpu1.iew.wb_sent                     142438525                       # cumulative count of insts sent to commit
system.cpu1.int_regfile_reads               178427955                       # number of integer regfile reads
system.cpu1.int_regfile_writes               95722289                       # number of integer regfile writes
system.cpu1.ipc                              0.201142                       # IPC: Instructions Per Cycle
system.cpu1.ipc_total                        0.201142                       # IPC: Total IPC of All Threads
system.cpu1.iq.FU_type_0::No_OpClass          7603382      5.24%      5.24% # Type of FU issued
system.cpu1.iq.FU_type_0::IntAlu             85131271     58.72%     63.96% # Type of FU issued
system.cpu1.iq.FU_type_0::IntMult                  45      0.00%     63.96% # Type of FU issued
system.cpu1.iq.FU_type_0::IntDiv                   88      0.00%     63.96% # Type of FU issued
system.cpu1.iq.FU_type_0::FloatAdd                  0      0.00%     63.96% # Type of FU issued
system.cpu1.iq.FU_type_0::FloatCmp                  0      0.00%     63.96% # Type of FU issued
system.cpu1.iq.FU_type_0::FloatCvt                  0      0.00%     63.96% # Type of FU issued
system.cpu1.iq.FU_type_0::FloatMult                 0      0.00%     63.96% # Type of FU issued
system.cpu1.iq.FU_type_0::FloatMultAcc              0      0.00%     63.96% # Type of FU issued
system.cpu1.iq.FU_type_0::FloatDiv                  0      0.00%     63.96% # Type of FU issued
system.cpu1.iq.FU_type_0::FloatMisc                 0      0.00%     63.96% # Type of FU issued
system.cpu1.iq.FU_type_0::FloatSqrt                 0      0.00%     63.96% # Type of FU issued
system.cpu1.iq.FU_type_0::SimdAdd                   0      0.00%     63.96% # Type of FU issued
system.cpu1.iq.FU_type_0::SimdAddAcc                0      0.00%     63.96% # Type of FU issued
system.cpu1.iq.FU_type_0::SimdAlu                   0      0.00%     63.96% # Type of FU issued
system.cpu1.iq.FU_type_0::SimdCmp                   0      0.00%     63.96% # Type of FU issued
system.cpu1.iq.FU_type_0::SimdCvt                   0      0.00%     63.96% # Type of FU issued
system.cpu1.iq.FU_type_0::SimdMisc                  0      0.00%     63.96% # Type of FU issued
system.cpu1.iq.FU_type_0::SimdMult                  0      0.00%     63.96% # Type of FU issued
system.cpu1.iq.FU_type_0::SimdMultAcc               0      0.00%     63.96% # Type of FU issued
system.cpu1.iq.FU_type_0::SimdShift                 0      0.00%     63.96% # Type of FU issued
system.cpu1.iq.FU_type_0::SimdShiftAcc              0      0.00%     63.96% # Type of FU issued
system.cpu1.iq.FU_type_0::SimdDiv                   0      0.00%     63.96% # Type of FU issued
system.cpu1.iq.FU_type_0::SimdSqrt                  0      0.00%     63.96% # Type of FU issued
system.cpu1.iq.FU_type_0::SimdFloatAdd              0      0.00%     63.96% # Type of FU issued
system.cpu1.iq.FU_type_0::SimdFloatAlu              0      0.00%     63.96% # Type of FU issued
system.cpu1.iq.FU_type_0::SimdFloatCmp              0      0.00%     63.96% # Type of FU issued
system.cpu1.iq.FU_type_0::SimdFloatCvt              0      0.00%     63.96% # Type of FU issued
system.cpu1.iq.FU_type_0::SimdFloatDiv              0      0.00%     63.96% # Type of FU issued
system.cpu1.iq.FU_type_0::SimdFloatMisc             0      0.00%     63.96% # Type of FU issued
system.cpu1.iq.FU_type_0::SimdFloatMult             0      0.00%     63.96% # Type of FU issued
system.cpu1.iq.FU_type_0::SimdFloatMultAcc            0      0.00%     63.96% # Type of FU issued
system.cpu1.iq.FU_type_0::SimdFloatSqrt             0      0.00%     63.96% # Type of FU issued
system.cpu1.iq.FU_type_0::SimdReduceAdd             0      0.00%     63.96% # Type of FU issued
system.cpu1.iq.FU_type_0::SimdReduceAlu             0      0.00%     63.96% # Type of FU issued
system.cpu1.iq.FU_type_0::SimdReduceCmp             0      0.00%     63.96% # Type of FU issued
system.cpu1.iq.FU_type_0::SimdFloatReduceAdd            0      0.00%     63.96% # Type of FU issued
system.cpu1.iq.FU_type_0::SimdFloatReduceCmp            0      0.00%     63.96% # Type of FU issued
system.cpu1.iq.FU_type_0::SimdAes                   0      0.00%     63.96% # Type of FU issued
system.cpu1.iq.FU_type_0::SimdAesMix                0      0.00%     63.96% # Type of FU issued
system.cpu1.iq.FU_type_0::SimdSha1Hash              0      0.00%     63.96% # Type of FU issued
system.cpu1.iq.FU_type_0::SimdSha1Hash2             0      0.00%     63.96% # Type of FU issued
system.cpu1.iq.FU_type_0::SimdSha256Hash            0      0.00%     63.96% # Type of FU issued
system.cpu1.iq.FU_type_0::SimdSha256Hash2            0      0.00%     63.96% # Type of FU issued
system.cpu1.iq.FU_type_0::SimdShaSigma2             0      0.00%     63.96% # Type of FU issued
system.cpu1.iq.FU_type_0::SimdShaSigma3             0      0.00%     63.96% # Type of FU issued
system.cpu1.iq.FU_type_0::SimdPredAlu               0      0.00%     63.96% # Type of FU issued
system.cpu1.iq.FU_type_0::MemRead            43662100     30.12%     94.08% # Type of FU issued
system.cpu1.iq.FU_type_0::MemWrite            8580718      5.92%    100.00% # Type of FU issued
system.cpu1.iq.FU_type_0::FloatMemRead              0      0.00%    100.00% # Type of FU issued
system.cpu1.iq.FU_type_0::FloatMemWrite            12      0.00%    100.00% # Type of FU issued
system.cpu1.iq.FU_type_0::IprAccess                 0      0.00%    100.00% # Type of FU issued
system.cpu1.iq.FU_type_0::InstPrefetch              0      0.00%    100.00% # Type of FU issued
system.cpu1.iq.FU_type_0::total             144977616                       # Type of FU issued
system.cpu1.iq.fp_alu_accesses                     14                       # Number of floating point alu accesses
system.cpu1.iq.fp_inst_queue_reads                 26                       # Number of floating instruction queue reads
system.cpu1.iq.fp_inst_queue_wakeup_accesses           12                       # Number of floating instruction queue wakeup accesses
system.cpu1.iq.fp_inst_queue_writes                12                       # Number of floating instruction queue writes
system.cpu1.iq.fu_busy_cnt                    4107422                       # FU busy when requested
system.cpu1.iq.fu_busy_rate                  0.028331                       # FU busy rate (busy events/executed inst)
system.cpu1.iq.fu_full::No_OpClass                  0      0.00%      0.00% # attempts to use FU when none available
system.cpu1.iq.fu_full::IntAlu                 703330     17.12%     17.12% # attempts to use FU when none available
system.cpu1.iq.fu_full::IntMult                     0      0.00%     17.12% # attempts to use FU when none available
system.cpu1.iq.fu_full::IntDiv                      0      0.00%     17.12% # attempts to use FU when none available
system.cpu1.iq.fu_full::FloatAdd                    0      0.00%     17.12% # attempts to use FU when none available
system.cpu1.iq.fu_full::FloatCmp                    0      0.00%     17.12% # attempts to use FU when none available
system.cpu1.iq.fu_full::FloatCvt                    0      0.00%     17.12% # attempts to use FU when none available
system.cpu1.iq.fu_full::FloatMult                   0      0.00%     17.12% # attempts to use FU when none available
system.cpu1.iq.fu_full::FloatMultAcc                0      0.00%     17.12% # attempts to use FU when none available
system.cpu1.iq.fu_full::FloatDiv                    0      0.00%     17.12% # attempts to use FU when none available
system.cpu1.iq.fu_full::FloatMisc                   0      0.00%     17.12% # attempts to use FU when none available
system.cpu1.iq.fu_full::FloatSqrt                   0      0.00%     17.12% # attempts to use FU when none available
system.cpu1.iq.fu_full::SimdAdd                     0      0.00%     17.12% # attempts to use FU when none available
system.cpu1.iq.fu_full::SimdAddAcc                  0      0.00%     17.12% # attempts to use FU when none available
system.cpu1.iq.fu_full::SimdAlu                     0      0.00%     17.12% # attempts to use FU when none available
system.cpu1.iq.fu_full::SimdCmp                     0      0.00%     17.12% # attempts to use FU when none available
system.cpu1.iq.fu_full::SimdCvt                     0      0.00%     17.12% # attempts to use FU when none available
system.cpu1.iq.fu_full::SimdMisc                    0      0.00%     17.12% # attempts to use FU when none available
system.cpu1.iq.fu_full::SimdMult                    0      0.00%     17.12% # attempts to use FU when none available
system.cpu1.iq.fu_full::SimdMultAcc                 0      0.00%     17.12% # attempts to use FU when none available
system.cpu1.iq.fu_full::SimdShift                   0      0.00%     17.12% # attempts to use FU when none available
system.cpu1.iq.fu_full::SimdShiftAcc                0      0.00%     17.12% # attempts to use FU when none available
system.cpu1.iq.fu_full::SimdDiv                     0      0.00%     17.12% # attempts to use FU when none available
system.cpu1.iq.fu_full::SimdSqrt                    0      0.00%     17.12% # attempts to use FU when none available
system.cpu1.iq.fu_full::SimdFloatAdd                0      0.00%     17.12% # attempts to use FU when none available
system.cpu1.iq.fu_full::SimdFloatAlu                0      0.00%     17.12% # attempts to use FU when none available
system.cpu1.iq.fu_full::SimdFloatCmp                0      0.00%     17.12% # attempts to use FU when none available
system.cpu1.iq.fu_full::SimdFloatCvt                0      0.00%     17.12% # attempts to use FU when none available
system.cpu1.iq.fu_full::SimdFloatDiv                0      0.00%     17.12% # attempts to use FU when none available
system.cpu1.iq.fu_full::SimdFloatMisc               0      0.00%     17.12% # attempts to use FU when none available
system.cpu1.iq.fu_full::SimdFloatMult               0      0.00%     17.12% # attempts to use FU when none available
system.cpu1.iq.fu_full::SimdFloatMultAcc            0      0.00%     17.12% # attempts to use FU when none available
system.cpu1.iq.fu_full::SimdFloatSqrt               0      0.00%     17.12% # attempts to use FU when none available
system.cpu1.iq.fu_full::SimdReduceAdd               0      0.00%     17.12% # attempts to use FU when none available
system.cpu1.iq.fu_full::SimdReduceAlu               0      0.00%     17.12% # attempts to use FU when none available
system.cpu1.iq.fu_full::SimdReduceCmp               0      0.00%     17.12% # attempts to use FU when none available
system.cpu1.iq.fu_full::SimdFloatReduceAdd            0      0.00%     17.12% # attempts to use FU when none available
system.cpu1.iq.fu_full::SimdFloatReduceCmp            0      0.00%     17.12% # attempts to use FU when none available
system.cpu1.iq.fu_full::SimdAes                     0      0.00%     17.12% # attempts to use FU when none available
system.cpu1.iq.fu_full::SimdAesMix                  0      0.00%     17.12% # attempts to use FU when none available
system.cpu1.iq.fu_full::SimdSha1Hash                0      0.00%     17.12% # attempts to use FU when none available
system.cpu1.iq.fu_full::SimdSha1Hash2               0      0.00%     17.12% # attempts to use FU when none available
system.cpu1.iq.fu_full::SimdSha256Hash              0      0.00%     17.12% # attempts to use FU when none available
system.cpu1.iq.fu_full::SimdSha256Hash2             0      0.00%     17.12% # attempts to use FU when none available
system.cpu1.iq.fu_full::SimdShaSigma2               0      0.00%     17.12% # attempts to use FU when none available
system.cpu1.iq.fu_full::SimdShaSigma3               0      0.00%     17.12% # attempts to use FU when none available
system.cpu1.iq.fu_full::SimdPredAlu                 0      0.00%     17.12% # attempts to use FU when none available
system.cpu1.iq.fu_full::MemRead               3083129     75.06%     92.19% # attempts to use FU when none available
system.cpu1.iq.fu_full::MemWrite               320961      7.81%    100.00% # attempts to use FU when none available
[...]
system.cpu1.dcache.ReadReq_miss_rate::total     0.221266                       # miss rate for ReadReq accesses
system.cpu1.dcache.ReadReq_avg_miss_latency::.cpu1.data 79089.349893                       # average ReadReq miss latency
system.cpu1.dcache.ReadReq_avg_miss_latency::total 79089.349893                       # average ReadReq miss latency
system.cpu1.dcache.ReadReq_mshr_hits::.cpu1.data      8752971                       # number of ReadReq MSHR hits
system.cpu1.dcache.ReadReq_mshr_hits::total      8752971                       # number of ReadReq MSHR hits
system.cpu1.dcache.ReadReq_mshr_misses::.cpu1.data      8046109                       # number of ReadReq MSHR misses
system.cpu1.dcache.ReadReq_mshr_misses::total      8046109                       # number of ReadReq MSHR misses
system.cpu1.dcache.ReadReq_mshr_miss_latency::.cpu1.data 765449034500                       # number of ReadReq MSHR miss cycles
system.cpu1.dcache.ReadReq_mshr_miss_latency::total 765449034500                       # number of ReadReq MSHR miss cycles
system.cpu1.dcache.ReadReq_mshr_miss_rate::.cpu1.data     0.105978                       # mshr miss rate for ReadReq accesses
system.cpu1.dcache.ReadReq_mshr_miss_rate::total     0.105978                       # mshr miss rate for ReadReq accesses
system.cpu1.dcache.ReadReq_avg_mshr_miss_latency::.cpu1.data 95132.819416                       # average ReadReq mshr miss latency
system.cpu1.dcache.ReadReq_avg_mshr_miss_latency::total 95132.819416                       # average ReadReq mshr miss latency
system.cpu1.dcache.WriteReq_hits::.cpu1.data      2710274                       # number of WriteReq hits
system.cpu1.dcache.WriteReq_hits::total       2710274                       # number of WriteReq hits
system.cpu1.dcache.WriteReq_misses::.cpu1.data       967846                       # number of WriteReq misses
system.cpu1.dcache.WriteReq_misses::total       967846                       # number of WriteReq misses
system.cpu1.dcache.WriteReq_miss_latency::.cpu1.data  73700131213                       # number of WriteReq miss cycles
system.cpu1.dcache.WriteReq_miss_latency::total  73700131213                       # number of WriteReq miss cycles
system.cpu1.dcache.WriteReq_accesses::.cpu1.data      3678120                       # number of WriteReq accesses(hits+misses)
system.cpu1.dcache.WriteReq_accesses::total      3678120                       # number of WriteReq accesses(hits+misses)
system.cpu1.dcache.WriteReq_miss_rate::.cpu1.data     0.263136                       # miss rate for WriteReq accesses
system.cpu1.dcache.WriteReq_miss_rate::total     0.263136                       # miss rate for WriteReq accesses
system.cpu1.dcache.WriteReq_avg_miss_latency::.cpu1.data 76148.613739                       # average WriteReq miss latency
system.cpu1.dcache.WriteReq_avg_miss_latency::total 76148.613739                       # average WriteReq miss latency
system.cpu1.dcache.WriteReq_mshr_hits::.cpu1.data       861436                       # number of WriteReq MSHR hits
system.cpu1.dcache.WriteReq_mshr_hits::total       861436                       # number of WriteReq MSHR hits
system.cpu1.dcache.WriteReq_mshr_misses::.cpu1.data       106410                       # number of WriteReq MSHR misses
system.cpu1.dcache.WriteReq_mshr_misses::total       106410                       # number of WriteReq MSHR misses
system.cpu1.dcache.WriteReq_mshr_miss_latency::.cpu1.data   6950460808                       # number of WriteReq MSHR miss cycles
system.cpu1.dcache.WriteReq_mshr_miss_latency::total   6950460808                       # number of WriteReq MSHR miss cycles
system.cpu1.dcache.WriteReq_mshr_miss_rate::.cpu1.data     0.028931                       # mshr miss rate for WriteReq accesses
system.cpu1.dcache.WriteReq_mshr_miss_rate::total     0.028931                       # mshr miss rate for WriteReq accesses
system.cpu1.dcache.WriteReq_avg_mshr_miss_latency::.cpu1.data 65317.740889                       # average WriteReq mshr miss latency
system.cpu1.dcache.WriteReq_avg_mshr_miss_latency::total 65317.740889                       # average WriteReq mshr miss latency
system.cpu1.dcache.LoadLockedReq_hits::.cpu1.data          683                       # number of LoadLockedReq hits
system.cpu1.dcache.LoadLockedReq_hits::total          683                       # number of LoadLockedReq hits
system.cpu1.dcache.LoadLockedReq_misses::.cpu1.data          144                       # number of LoadLockedReq misses
system.cpu1.dcache.LoadLockedReq_misses::total          144                       # number of LoadLockedReq misses
system.cpu1.dcache.LoadLockedReq_miss_latency::.cpu1.data     12909500                       # number of LoadLockedReq miss cycles
system.cpu1.dcache.LoadLockedReq_miss_latency::total     12909500                       # number of LoadLockedReq miss cycles
system.cpu1.dcache.LoadLockedReq_accesses::.cpu1.data          827                       # number of LoadLockedReq accesses(hits+misses)
system.cpu1.dcache.LoadLockedReq_accesses::total          827                       # number of LoadLockedReq accesses(hits+misses)
system.cpu1.dcache.LoadLockedReq_miss_rate::.cpu1.data     0.174123                       # miss rate for LoadLockedReq accesses
system.cpu1.dcache.LoadLockedReq_miss_rate::total     0.174123                       # miss rate for LoadLockedReq accesses
system.cpu1.dcache.LoadLockedReq_avg_miss_latency::.cpu1.data 89649.305556                       # average LoadLockedReq miss latency
system.cpu1.dcache.LoadLockedReq_avg_miss_latency::total 89649.305556                       # average LoadLockedReq miss latency
system.cpu1.dcache.LoadLockedReq_mshr_hits::.cpu1.data           62                       # number of LoadLockedReq MSHR hits
system.cpu1.dcache.LoadLockedReq_mshr_hits::total           62                       # number of LoadLockedReq MSHR hits
system.cpu1.dcache.LoadLockedReq_mshr_misses::.cpu1.data           82                       # number of LoadLockedReq MSHR misses
system.cpu1.dcache.LoadLockedReq_mshr_misses::total           82                       # number of LoadLockedReq MSHR misses
system.cpu1.dcache.LoadLockedReq_mshr_miss_latency::.cpu1.data      7010000                       # number of LoadLockedReq MSHR miss cycles
system.cpu1.dcache.LoadLockedReq_mshr_miss_latency::total      7010000                       # number of LoadLockedReq MSHR miss cycles
system.cpu1.dcache.LoadLockedReq_mshr_miss_rate::.cpu1.data     0.099154                       # mshr miss rate for LoadLockedReq accesses
system.cpu1.dcache.LoadLockedReq_mshr_miss_rate::total     0.099154                       # mshr miss rate for LoadLockedReq accesses
system.cpu1.dcache.LoadLockedReq_avg_mshr_miss_latency::.cpu1.data 85487.804878                       # average LoadLockedReq mshr miss latency
system.cpu1.dcache.LoadLockedReq_avg_mshr_miss_latency::total 85487.804878                       # average LoadLockedReq mshr miss latency
system.cpu1.dcache.StoreCondReq_hits::.cpu1.data          594                       # number of StoreCondReq hits
system.cpu1.dcache.StoreCondReq_hits::total          594                       # number of StoreCondReq hits
system.cpu1.dcache.StoreCondReq_misses::.cpu1.data          206                       # number of StoreCondReq misses
system.cpu1.dcache.StoreCondReq_misses::total          206                       # number of StoreCondReq misses
system.cpu1.dcache.StoreCondReq_miss_latency::.cpu1.data      1318000                       # number of StoreCondReq miss cycles
system.cpu1.dcache.StoreCondReq_miss_latency::total      1318000                       # number of StoreCondReq miss cycles
system.cpu1.dcache.StoreCondReq_accesses::.cpu1.data          800                       # number of StoreCondReq accesses(hits+misses)
system.cpu1.dcache.StoreCondReq_accesses::total          800                       # number of StoreCondReq accesses(hits+misses)
system.cpu1.dcache.StoreCondReq_miss_rate::.cpu1.data     0.257500                       # miss rate for StoreCondReq accesses
system.cpu1.dcache.StoreCondReq_miss_rate::total     0.257500                       # miss rate for StoreCondReq accesses
system.cpu1.dcache.StoreCondReq_avg_miss_latency::.cpu1.data  6398.058252                       # average StoreCondReq miss latency
system.cpu1.dcache.StoreCondReq_avg_miss_latency::total  6398.058252                       # average StoreCondReq miss latency
system.cpu1.dcache.StoreCondReq_mshr_misses::.cpu1.data          206                       # number of StoreCondReq MSHR misses
system.cpu1.dcache.StoreCondReq_mshr_misses::total          206                       # number of StoreCondReq MSHR misses
system.cpu1.dcache.StoreCondReq_mshr_miss_latency::.cpu1.data      1112000                       # number of StoreCondReq MSHR miss cycles
system.cpu1.dcache.StoreCondReq_mshr_miss_latency::total      1112000                       # number of StoreCondReq MSHR miss cycles
system.cpu1.dcache.StoreCondReq_mshr_miss_rate::.cpu1.data     0.257500                       # mshr miss rate for StoreCondReq accesses
system.cpu1.dcache.StoreCondReq_mshr_miss_rate::total     0.257500                       # mshr miss rate for StoreCondReq accesses
system.cpu1.dcache.StoreCondReq_avg_mshr_miss_latency::.cpu1.data  5398.058252                       # average StoreCondReq mshr miss latency
system.cpu1.dcache.StoreCondReq_avg_mshr_miss_latency::total  5398.058252                       # average StoreCondReq mshr miss latency
system.cpu1.dcache.SwapReq_hits::.cpu1.data          306                       # number of SwapReq hits
system.cpu1.dcache.SwapReq_hits::total            306                       # number of SwapReq hits
system.cpu1.dcache.SwapReq_misses::.cpu1.data          152                       # number of SwapReq misses
system.cpu1.dcache.SwapReq_misses::total          152                       # number of SwapReq misses
system.cpu1.dcache.SwapReq_miss_latency::.cpu1.data       731500                       # number of SwapReq miss cycles
system.cpu1.dcache.SwapReq_miss_latency::total       731500                       # number of SwapReq miss cycles
system.cpu1.dcache.SwapReq_accesses::.cpu1.data          458                       # number of SwapReq accesses(hits+misses)
system.cpu1.dcache.SwapReq_accesses::total          458                       # number of SwapReq accesses(hits+misses)
system.cpu1.dcache.SwapReq_miss_rate::.cpu1.data     0.331878                       # miss rate for SwapReq accesses
system.cpu1.dcache.SwapReq_miss_rate::total     0.331878                       # miss rate for SwapReq accesses
system.cpu1.dcache.SwapReq_avg_miss_latency::.cpu1.data  4812.500000                       # average SwapReq miss latency
system.cpu1.dcache.SwapReq_avg_miss_latency::total  4812.500000                       # average SwapReq miss latency
system.cpu1.dcache.SwapReq_mshr_misses::.cpu1.data          152                       # number of SwapReq MSHR misses
system.cpu1.dcache.SwapReq_mshr_misses::total          152                       # number of SwapReq MSHR misses
system.cpu1.dcache.SwapReq_mshr_miss_latency::.cpu1.data       579500                       # number of SwapReq MSHR miss cycles
system.cpu1.dcache.SwapReq_mshr_miss_latency::total       579500                       # number of SwapReq MSHR miss cycles
system.cpu1.dcache.SwapReq_mshr_miss_rate::.cpu1.data     0.331878                       # mshr miss rate for SwapReq accesses
system.cpu1.dcache.SwapReq_mshr_miss_rate::total     0.331878                       # mshr miss rate for SwapReq accesses
system.cpu1.dcache.SwapReq_avg_mshr_miss_latency::.cpu1.data  3812.500000                       # average SwapReq mshr miss latency
system.cpu1.dcache.SwapReq_avg_mshr_miss_latency::total  3812.500000                       # average SwapReq mshr miss latency
system.cpu1.dcache.tags.pwrStateResidencyTicks::UNDEFINED 1042699693000                       # Cumulative time (in ticks) in various power states
system.cpu1.dcache.tags.tagsinuse           31.994568                       # Cycle average of tags in use
system.cpu1.dcache.tags.total_refs           69990654                       # Total number of references to valid blocks.
system.cpu1.dcache.tags.sampled_refs          8152421                       # Sample count of references to valid blocks.
system.cpu1.dcache.tags.avg_refs             8.585260                       # Average number of references to valid blocks.
system.cpu1.dcache.tags.warmup_cycle                0                       # Cycle when the warmup percentage was hit.
system.cpu1.dcache.tags.occ_blocks::.cpu1.data    31.994568                       # Average occupied blocks per requestor
system.cpu1.dcache.tags.occ_percent::.cpu1.data     0.999830                       # Average percentage of cache occupancy
system.cpu1.dcache.tags.occ_percent::total     0.999830                       # Average percentage of cache occupancy
system.cpu1.dcache.tags.occ_task_id_blocks::1024           29                       # Occupied blocks per task id
system.cpu1.dcache.tags.age_task_id_blocks_1024::1           29                       # Occupied blocks per task id
system.cpu1.dcache.tags.occ_task_id_percent::1024     0.906250                       # Percentage of cache occupancy per task id
system.cpu1.dcache.tags.tag_accesses        167357617                       # Number of tag accesses
system.cpu1.dcache.tags.data_accesses       167357617                       # Number of data accesses
system.cpu_clk_domain.clock                       500                       # Clock period in ticks
system.tol2bus.pwrStateResidencyTicks::UNDEFINED 1042699693000                       # Cumulative time (in ticks) in various power states
system.tol2bus.trans_dist::ReadResp          47711574                       # Transaction distribution
system.tol2bus.trans_dist::WritebackDirty      2446862                       # Transaction distribution
system.tol2bus.trans_dist::WritebackClean     46617644                       # Transaction distribution
system.tol2bus.trans_dist::CleanEvict       100329428                       # Transaction distribution
system.tol2bus.trans_dist::HardPFReq         54338526                       # Transaction distribution
system.tol2bus.trans_dist::HardPFResp               1                       # Transaction distribution
system.tol2bus.trans_dist::UpgradeReq            3452                       # Transaction distribution
system.tol2bus.trans_dist::SCUpgradeReq           438                       # Transaction distribution
system.tol2bus.trans_dist::UpgradeResp           3890                       # Transaction distribution
system.tol2bus.trans_dist::ReadExReq           211102                       # Transaction distribution
system.tol2bus.trans_dist::ReadExResp          211102                       # Transaction distribution
system.tol2bus.trans_dist::ReadCleanReq         17719                       # Transaction distribution
system.tol2bus.trans_dist::ReadSharedReq     47693856                       # Transaction distribution
system.tol2bus.pkt_count_system.cpu0.icache.mem_side::system.l2.cpu_side        45502                       # Packet count per connected master and slave (bytes)
system.tol2bus.pkt_count_system.cpu0.dcache.mem_side::system.l2.cpu_side    119261806                       # Packet count per connected master and slave (bytes)
system.tol2bus.pkt_count_system.cpu1.icache.mem_side::system.l2.cpu_side         7653                       # Packet count per connected master and slave (bytes)
system.tol2bus.pkt_count_system.cpu1.dcache.mem_side::system.l2.cpu_side     24451735                       # Packet count per connected master and slave (bytes)
system.tol2bus.pkt_count::total             143766696                       # Packet count per connected master and slave (bytes)
system.tol2bus.pkt_size_system.cpu0.icache.mem_side::system.l2.cpu_side      1941376                       # Cumulative packet size per connected master and slave (bytes)
system.tol2bus.pkt_size_system.cpu0.dcache.mem_side::system.l2.cpu_side   5088216576                       # Cumulative packet size per connected master and slave (bytes)
system.tol2bus.pkt_size_system.cpu1.icache.mem_side::system.l2.cpu_side       326528                       # Cumulative packet size per connected master and slave (bytes)
system.tol2bus.pkt_size_system.cpu1.dcache.mem_side::system.l2.cpu_side   1043116864                       # Cumulative packet size per connected master and slave (bytes)
system.tol2bus.pkt_size::total             6133601344                       # Cumulative packet size per connected master and slave (bytes)
system.tol2bus.snoops                       155818899                       # Total snoops (count)
system.tol2bus.snoopTraffic                  73578432                       # Total snoop traffic (bytes)
system.tol2bus.snoop_fanout::samples        203743720                       # Request fanout histogram
system.tol2bus.snoop_fanout::mean            0.165087                       # Request fanout histogram
system.tol2bus.snoop_fanout::stdev           0.378431                       # Request fanout histogram
system.tol2bus.snoop_fanout::underflows             0      0.00%      0.00% # Request fanout histogram
system.tol2bus.snoop_fanout::0              170656073     83.76%     83.76% # Request fanout histogram
system.tol2bus.snoop_fanout::1               32539885     15.97%     99.73% # Request fanout histogram
system.tol2bus.snoop_fanout::2                 547762      0.27%    100.00% # Request fanout histogram
system.tol2bus.snoop_fanout::3                      0      0.00%    100.00% # Request fanout histogram
system.tol2bus.snoop_fanout::4                      0      0.00%    100.00% # Request fanout histogram
system.tol2bus.snoop_fanout::5                      0      0.00%    100.00% # Request fanout histogram
system.tol2bus.snoop_fanout::6                      0      0.00%    100.00% # Request fanout histogram
system.tol2bus.snoop_fanout::7                      0      0.00%    100.00% # Request fanout histogram
system.tol2bus.snoop_fanout::8                      0      0.00%    100.00% # Request fanout histogram
system.tol2bus.snoop_fanout::overflows              0      0.00%    100.00% # Request fanout histogram
system.tol2bus.snoop_fanout::min_value              0                       # Request fanout histogram
system.tol2bus.snoop_fanout::max_value              2                       # Request fanout histogram
system.tol2bus.snoop_fanout::total          203743720                       # Request fanout histogram
system.tol2bus.reqLayer0.occupancy        95846650050                       # Layer occupancy (ticks)
system.tol2bus.reqLayer0.utilization              9.2                       # Layer utilization (%)
system.tol2bus.respLayer1.occupancy       59642016935                       # Layer occupancy (ticks)
system.tol2bus.respLayer1.utilization             5.7                       # Layer utilization (%)
system.tol2bus.respLayer0.occupancy          22767965                       # Layer occupancy (ticks)
system.tol2bus.respLayer0.utilization             0.0                       # Layer utilization (%)
system.tol2bus.respLayer3.occupancy       12238106500                       # Layer occupancy (ticks)
system.tol2bus.respLayer3.utilization             1.2                       # Layer utilization (%)
system.tol2bus.respLayer2.occupancy           3832488                       # Layer occupancy (ticks)
system.tol2bus.respLayer2.utilization             0.0                       # Layer utilization (%)
system.tol2bus.snoopLayer0.occupancy             1501                       # Layer occupancy (ticks)
system.tol2bus.snoopLayer0.utilization            0.0                       # Layer utilization (%)

---------- End Simulation Statistics   ----------
