Redirecting stdout to /vol1/msoyturk/gem5/results/cc/slashdot.el/4kB/output.txt
Redirecting stderr to /vol1/msoyturk/gem5/results/cc/slashdot.el/4kB/error.txt
gem5 Simulator System.  http://gem5.org
gem5 is copyrighted software; use the --copyright option for details.

gem5 compiled Apr 26 2020 13:32:47
gem5 started May  4 2020 05:49:09
gem5 executing on draco, pid 32531
command line: /vol1/msoyturk/gem5/build/RISCV/gem5.fast -re --outdir=/vol1/msoyturk/gem5/results/cc/slashdot.el/4kB --stdout-file=output.txt --stderr-file=error.txt /vol1/msoyturk/gem5/configs/example/my_se.py -c /vol1/msoyturk/gem5/gapbs/cc -o '-f /vol1/msoyturk/gem5/gapbs/test/graphs/slashdot.el' --caches --l1d_size=2kB --l1i_size=2kB --cpu-type=DerivO3CPU -n 4 --mem-size=512MB --l2cache --l2_size=4kB --l1i_mshrs=4 --l1d_mshrs=4 --l2_mshrs=20 --l1i_write_buffers=8 --l1d_write_buffers=8 --l2_write_buffers=8

info: Standard input is not a terminal, disabling listeners.
Global frequency set at 1000000000000 ticks per second
**** REAL SIMULATION ****
Read Time:           0.81768
Build Time:          0.15947
Graph has 77360 nodes and 828161 directed edges for degree: 10
Skipping largest intermediate component (ID: 0, approx. 90% of the graph)
Trial Time:          0.00736
Skipping largest intermediate component (ID: 0, approx. 90% of the graph)
Trial Time:          0.00733
Skipping largest intermediate component (ID: 0, approx. 90% of the graph)
Trial Time:          0.00733
Skipping largest intermediate component (ID: 0, approx. 90% of the graph)
Trial Time:          0.00733
Skipping largest intermediate component (ID: 0, approx. 90% of the graph)
Trial Time:          0.00734
Skipping largest intermediate component (ID: 0, approx. 90% of the graph)
Trial Time:          0.00733
Skipping largest intermediate component (ID: 0, approx. 90% of the graph)
Trial Time:          0.00733
Skipping largest intermediate component (ID: 0, approx. 90% of the graph)
Trial Time:          0.00733
Skipping largest intermediate component (ID: 0, approx. 90% of the graph)
Trial Time:          0.00733
Skipping largest intermediate component (ID: 0, approx. 90% of the graph)
Trial Time:          0.00734
Skipping largest intermediate component (ID: 0, approx. 90% of the graph)
Trial Time:          0.00733
Skipping largest intermediate component (ID: 0, approx. 90% of the graph)
Trial Time:          0.00734
Skipping largest intermediate component (ID: 0, approx. 90% of the graph)
Trial Time:          0.00733
Skipping largest intermediate component (ID: 0, approx. 90% of the graph)
Trial Time:          0.00733
Skipping largest intermediate component (ID: 0, approx. 90% of the graph)
Trial Time:          0.00733
Skipping largest intermediate component (ID: 0, approx. 90% of the graph)
Trial Time:          0.00733
Average Time:        0.00733
Exiting @ tick 1158736183000 because exiting with last active thread context
