
---------- Begin Simulation Statistics ----------
final_tick                               1063982457500                       # Number of ticks from beginning of simulation (restored from checkpoints and never reset)
host_inst_rate                                 103863                       # Simulator instruction rate (inst/s)
host_mem_usage                                 738824                       # Number of bytes of host memory used
host_op_rate                                   104166                       # Simulator op (including micro ops) rate (op/s)
host_seconds                                 13873.37                       # Real time elapsed on the host
host_tick_rate                               76692449                       # Simulator tick rate (ticks/s)
sim_freq                                 1000000000000                       # Frequency of simulated ticks
sim_insts                                  1440922994                       # Number of instructions simulated
sim_ops                                    1445127984                       # Number of ops (including micro ops) simulated
sim_seconds                                  1.063982                       # Number of seconds simulated
sim_ticks                                1063982457500                       # Number of ticks simulated
system.cpu0.branchPred.BTBCorrect                   0                       # Number of correct BTB predictions (this stat may not work properly.
system.cpu0.branchPred.BTBHitPct            87.990541                       # BTB Hit Percentage
system.cpu0.branchPred.BTBHits              168176465                       # Number of BTB hits
system.cpu0.branchPred.BTBLookups           191130164                       # Number of BTB lookups
system.cpu0.branchPred.RASInCorrect                 0                       # Number of incorrect RAS predictions.
system.cpu0.branchPred.condIncorrect         14910630                       # Number of conditional branches incorrect
system.cpu0.branchPred.condPredicted        259325293                       # Number of conditional branches predicted
system.cpu0.branchPred.indirectHits          21768259                       # Number of indirect target hits.
system.cpu0.branchPred.indirectLookups       22394481                       # Number of indirect predictor lookups.
system.cpu0.branchPred.indirectMisses          626222                       # Number of indirect misses.
system.cpu0.branchPred.lookups              329083390                       # Number of BP lookups
system.cpu0.branchPred.usedRAS                      0                       # Number of times the RAS was used to get a target.
system.cpu0.branchPredindirectMispredicted      2148425                       # Number of mispredicted indirect branches.
system.cpu0.commit.amos                       1050451                       # Number of atomic instructions committed
system.cpu0.commit.branchMispredicts          9109710                       # The number of times a branch was mispredicted
system.cpu0.commit.branches                 313654869                       # Number of branches committed
system.cpu0.commit.bw_lim_events             33782793                       # number cycles where commit BW limit reached
system.cpu0.commit.commitNonSpecStalls        3160595                       # The number of times commit has been forced to stall to communicate backwards
system.cpu0.commit.commitSquashedInsts       46525361                       # The number of squashed insts skipped by commit
system.cpu0.commit.committedInsts          1250517387                       # Number of instructions committed
system.cpu0.commit.committedOps            1251571121                       # Number of ops (including micro ops) committed
system.cpu0.commit.committed_per_cycle::samples   1959198388                       # Number of insts commited each cycle
system.cpu0.commit.committed_per_cycle::mean     0.638818                       # Number of insts commited each cycle
system.cpu0.commit.committed_per_cycle::stdev     1.395170                       # Number of insts commited each cycle
system.cpu0.commit.committed_per_cycle::underflows            0      0.00%      0.00% # Number of insts commited each cycle
system.cpu0.commit.committed_per_cycle::0   1355629445     69.19%     69.19% # Number of insts commited each cycle
system.cpu0.commit.committed_per_cycle::1    358757929     18.31%     87.50% # Number of insts commited each cycle
system.cpu0.commit.committed_per_cycle::2     84632452      4.32%     91.82% # Number of insts commited each cycle
system.cpu0.commit.committed_per_cycle::3     83062639      4.24%     96.06% # Number of insts commited each cycle
system.cpu0.commit.committed_per_cycle::4     26144039      1.33%     97.40% # Number of insts commited each cycle
system.cpu0.commit.committed_per_cycle::5      8002651      0.41%     97.81% # Number of insts commited each cycle
system.cpu0.commit.committed_per_cycle::6      4796464      0.24%     98.05% # Number of insts commited each cycle
system.cpu0.commit.committed_per_cycle::7      4389976      0.22%     98.28% # Number of insts commited each cycle
system.cpu0.commit.committed_per_cycle::8     33782793      1.72%    100.00% # Number of insts commited each cycle
system.cpu0.commit.committed_per_cycle::overflows            0      0.00%    100.00% # Number of insts commited each cycle
system.cpu0.commit.committed_per_cycle::min_value            0                       # Number of insts commited each cycle
system.cpu0.commit.committed_per_cycle::max_value            8                       # Number of insts commited each cycle
system.cpu0.commit.committed_per_cycle::total   1959198388                       # Number of insts commited each cycle
system.cpu0.commit.fp_insts                        50                       # Number of committed floating point instructions.
system.cpu0.commit.function_calls            24112826                       # Number of function calls committed.
system.cpu0.commit.int_insts               1209817442                       # Number of committed integer instructions.
system.cpu0.commit.loads                    388697165                       # Number of loads committed
system.cpu0.commit.membars                    2104043                       # Number of memory barriers committed
system.cpu0.commit.op_class_0::No_OpClass      2104049      0.17%      0.17% # Class of committed instruction
system.cpu0.commit.op_class_0::IntAlu       699530169     55.89%     56.06% # Class of committed instruction
system.cpu0.commit.op_class_0::IntMult       11833132      0.95%     57.01% # Class of committed instruction
system.cpu0.commit.op_class_0::IntDiv         2099835      0.17%     57.17% # Class of committed instruction
system.cpu0.commit.op_class_0::FloatAdd             0      0.00%     57.17% # Class of committed instruction
system.cpu0.commit.op_class_0::FloatCmp             4      0.00%     57.17% # Class of committed instruction
system.cpu0.commit.op_class_0::FloatCvt            12      0.00%     57.17% # Class of committed instruction
system.cpu0.commit.op_class_0::FloatMult            0      0.00%     57.17% # Class of committed instruction
system.cpu0.commit.op_class_0::FloatMultAcc            0      0.00%     57.17% # Class of committed instruction
system.cpu0.commit.op_class_0::FloatDiv             2      0.00%     57.17% # Class of committed instruction
system.cpu0.commit.op_class_0::FloatMisc            4      0.00%     57.17% # Class of committed instruction
system.cpu0.commit.op_class_0::FloatSqrt            0      0.00%     57.17% # Class of committed instruction
system.cpu0.commit.op_class_0::SimdAdd              0      0.00%     57.17% # Class of committed instruction
system.cpu0.commit.op_class_0::SimdAddAcc            0      0.00%     57.17% # Class of committed instruction
system.cpu0.commit.op_class_0::SimdAlu              0      0.00%     57.17% # Class of committed instruction
system.cpu0.commit.op_class_0::SimdCmp              0      0.00%     57.17% # Class of committed instruction
system.cpu0.commit.op_class_0::SimdCvt              0      0.00%     57.17% # Class of committed instruction
system.cpu0.commit.op_class_0::SimdMisc             0      0.00%     57.17% # Class of committed instruction
system.cpu0.commit.op_class_0::SimdMult             0      0.00%     57.17% # Class of committed instruction
system.cpu0.commit.op_class_0::SimdMultAcc            0      0.00%     57.17% # Class of committed instruction
system.cpu0.commit.op_class_0::SimdShift            0      0.00%     57.17% # Class of committed instruction
system.cpu0.commit.op_class_0::SimdShiftAcc            0      0.00%     57.17% # Class of committed instruction
system.cpu0.commit.op_class_0::SimdDiv              0      0.00%     57.17% # Class of committed instruction
system.cpu0.commit.op_class_0::SimdSqrt             0      0.00%     57.17% # Class of committed instruction
system.cpu0.commit.op_class_0::SimdFloatAdd            0      0.00%     57.17% # Class of committed instruction
system.cpu0.commit.op_class_0::SimdFloatAlu            0      0.00%     57.17% # Class of committed instruction
system.cpu0.commit.op_class_0::SimdFloatCmp            0      0.00%     57.17% # Class of committed instruction
system.cpu0.commit.op_class_0::SimdFloatCvt            0      0.00%     57.17% # Class of committed instruction
system.cpu0.commit.op_class_0::SimdFloatDiv            0      0.00%     57.17% # Class of committed instruction
system.cpu0.commit.op_class_0::SimdFloatMisc            0      0.00%     57.17% # Class of committed instruction
system.cpu0.commit.op_class_0::SimdFloatMult            0      0.00%     57.17% # Class of committed instruction
system.cpu0.commit.op_class_0::SimdFloatMultAcc            0      0.00%     57.17% # Class of committed instruction
system.cpu0.commit.op_class_0::SimdFloatSqrt            0      0.00%     57.17% # Class of committed instruction
system.cpu0.commit.op_class_0::SimdReduceAdd            0      0.00%     57.17% # Class of committed instruction
system.cpu0.commit.op_class_0::SimdReduceAlu            0      0.00%     57.17% # Class of committed instruction
system.cpu0.commit.op_class_0::SimdReduceCmp            0      0.00%     57.17% # Class of committed instruction
system.cpu0.commit.op_class_0::SimdFloatReduceAdd            0      0.00%     57.17% # Class of committed instruction
system.cpu0.commit.op_class_0::SimdFloatReduceCmp            0      0.00%     57.17% # Class of committed instruction
system.cpu0.commit.op_class_0::SimdAes              0      0.00%     57.17% # Class of committed instruction
system.cpu0.commit.op_class_0::SimdAesMix            0      0.00%     57.17% # Class of committed instruction
system.cpu0.commit.op_class_0::SimdSha1Hash            0      0.00%     57.17% # Class of committed instruction
system.cpu0.commit.op_class_0::SimdSha1Hash2            0      0.00%     57.17% # Class of committed instruction
system.cpu0.commit.op_class_0::SimdSha256Hash            0      0.00%     57.17% # Class of committed instruction
system.cpu0.commit.op_class_0::SimdSha256Hash2            0      0.00%     57.17% # Class of committed instruction
system.cpu0.commit.op_class_0::SimdShaSigma2            0      0.00%     57.17% # Class of committed instruction
system.cpu0.commit.op_class_0::SimdShaSigma3            0      0.00%     57.17% # Class of committed instruction
system.cpu0.commit.op_class_0::SimdPredAlu            0      0.00%     57.17% # Class of committed instruction
system.cpu0.commit.op_class_0::MemRead      389747608     31.14%     88.31% # Class of committed instruction
system.cpu0.commit.op_class_0::MemWrite     146256278     11.69%    100.00% # Class of committed instruction
system.cpu0.commit.op_class_0::FloatMemRead            8      0.00%    100.00% # Class of committed instruction
system.cpu0.commit.op_class_0::FloatMemWrite           20      0.00%    100.00% # Class of committed instruction
system.cpu0.commit.op_class_0::IprAccess            0      0.00%    100.00% # Class of committed instruction
system.cpu0.commit.op_class_0::InstPrefetch            0      0.00%    100.00% # Class of committed instruction
system.cpu0.commit.op_class_0::total       1251571121                       # Class of committed instruction
system.cpu0.commit.refs                     536003914                       # Number of memory references committed
system.cpu0.commit.swp_count                        0                       # Number of s/w prefetches committed
system.cpu0.commit.vec_insts                        0                       # Number of committed Vector instructions.
system.cpu0.committedInsts                 1250517387                       # Number of Instructions Simulated
system.cpu0.committedOps                   1251571121                       # Number of Ops (including micro ops) Simulated
system.cpu0.cpi                              1.693280                       # CPI: Cycles Per Instruction
system.cpu0.cpi_total                        1.693280                       # CPI: Total CPI of All Threads
system.cpu0.decode.BlockedCycles            307941069                       # Number of cycles decode is blocked
system.cpu0.decode.BranchMispred              5823352                       # Number of times decode detected a branch misprediction
system.cpu0.decode.BranchResolved           166716140                       # Number of times decode resolved a branch
system.cpu0.decode.DecodedInsts            1317047190                       # Number of instructions handled by decode
system.cpu0.decode.IdleCycles               740358224                       # Number of cycles decode is idle
system.cpu0.decode.RunCycles                910912084                       # Number of cycles decode is running
system.cpu0.decode.SquashCycles               9118251                       # Number of cycles decode is squashing
system.cpu0.decode.SquashedInsts             13704937                       # Number of squashed instructions handled by decode
system.cpu0.decode.UnblockCycles              4040648                       # Number of cycles decode is unblocking
system.cpu0.dtb.accesses                            0                       # DTB accesses
system.cpu0.dtb.hits                                0                       # DTB hits
system.cpu0.dtb.misses                              0                       # DTB misses
system.cpu0.dtb.read_accesses                       0                       # DTB read accesses
system.cpu0.dtb.read_hits                           0                       # DTB read hits
system.cpu0.dtb.read_misses                         0                       # DTB read misses
system.cpu0.dtb.write_accesses                      0                       # DTB write accesses
system.cpu0.dtb.write_hits                          0                       # DTB write hits
system.cpu0.dtb.write_misses                        0                       # DTB write misses
system.cpu0.fetch.Branches                  329083390                       # Number of branches that fetch encountered
system.cpu0.fetch.CacheLines                232701075                       # Number of cache lines fetched
system.cpu0.fetch.Cycles                   1231302048                       # Number of cycles fetch has run and was not squashing or blocked
system.cpu0.fetch.IcacheSquashes              5676084                       # Number of outstanding Icache misses that were squashed
system.cpu0.fetch.IcacheWaitRetryStallCycles          103                       # Number of stall cycles due to full MSHR
system.cpu0.fetch.Insts                    1340692514                       # Number of instructions fetch has processed
system.cpu0.fetch.MiscStallCycles                 114                       # Number of cycles fetch has spent waiting on interrupts, or bad addresses, or out of MSHRs
system.cpu0.fetch.PendingTrapStallCycles          623                       # Number of stall cycles due to pending traps
system.cpu0.fetch.SquashCycles               29838546                       # Number of cycles fetch has spent squashing
system.cpu0.fetch.branchRate                 0.155413                       # Number of branch fetches per cycle
system.cpu0.fetch.icacheStallCycles         726148115                       # Number of cycles fetch is stalled on an Icache miss
system.cpu0.fetch.predictedBranches         189944724                       # Number of branches that fetch has predicted taken
system.cpu0.fetch.rate                       0.633156                       # Number of inst fetches per cycle
system.cpu0.fetch.rateDist::samples        1972370276                       # Number of instructions fetched each cycle (Total)
system.cpu0.fetch.rateDist::mean             0.680271                       # Number of instructions fetched each cycle (Total)
system.cpu0.fetch.rateDist::stdev            0.910726                       # Number of instructions fetched each cycle (Total)
system.cpu0.fetch.rateDist::underflows              0      0.00%      0.00% # Number of instructions fetched each cycle (Total)
system.cpu0.fetch.rateDist::0              1025283176     51.98%     51.98% # Number of instructions fetched each cycle (Total)
system.cpu0.fetch.rateDist::1               704076610     35.70%     87.68% # Number of instructions fetched each cycle (Total)
system.cpu0.fetch.rateDist::2               124205762      6.30%     93.98% # Number of instructions fetched each cycle (Total)
system.cpu0.fetch.rateDist::3                97374474      4.94%     98.91% # Number of instructions fetched each cycle (Total)
system.cpu0.fetch.rateDist::4                16600293      0.84%     99.76% # Number of instructions fetched each cycle (Total)
system.cpu0.fetch.rateDist::5                 2456153      0.12%     99.88% # Number of instructions fetched each cycle (Total)
system.cpu0.fetch.rateDist::6                  268405      0.01%     99.89% # Number of instructions fetched each cycle (Total)
system.cpu0.fetch.rateDist::7                     434      0.00%     99.89% # Number of instructions fetched each cycle (Total)
system.cpu0.fetch.rateDist::8                 2104969      0.11%    100.00% # Number of instructions fetched each cycle (Total)
system.cpu0.fetch.rateDist::overflows               0      0.00%    100.00% # Number of instructions fetched each cycle (Total)
system.cpu0.fetch.rateDist::min_value               0                       # Number of instructions fetched each cycle (Total)
system.cpu0.fetch.rateDist::max_value               8                       # Number of instructions fetched each cycle (Total)
system.cpu0.fetch.rateDist::total          1972370276                       # Number of instructions fetched each cycle (Total)
system.cpu0.fp_regfile_reads                       44                       # number of floating regfile reads
system.cpu0.fp_regfile_writes                      24                       # number of floating regfile writes
system.cpu0.idleCycles                      145106007                       # Total number of cycles that the CPU has spent unscheduled due to idling
system.cpu0.iew.branchMispredicts             9182970                       # Number of branch mispredicts detected at execute
system.cpu0.iew.exec_branches               319273508                       # Number of branches executed
system.cpu0.iew.exec_nop                            0                       # number of nop insts executed
system.cpu0.iew.exec_rate                    0.610561                       # Inst execution rate
system.cpu0.iew.exec_refs                   562556420                       # number of memory reference insts executed
system.cpu0.iew.exec_stores                 151671597                       # Number of stores executed
system.cpu0.iew.exec_swp                            0                       # number of swp insts executed
system.cpu0.iew.iewBlockCycles              220315348                       # Number of cycles IEW is blocking
system.cpu0.iew.iewDispLoadInsts            408666451                       # Number of dispatched load instructions
system.cpu0.iew.iewDispNonSpecInsts           1056759                       # Number of dispatched non-speculative instructions
system.cpu0.iew.iewDispSquashedInsts          5244517                       # Number of squashed instructions skipped by dispatch
system.cpu0.iew.iewDispStoreInsts           152286842                       # Number of dispatched store instructions
system.cpu0.iew.iewDispatchedInsts         1298062993                       # Number of instructions dispatched to IQ
system.cpu0.iew.iewExecLoadInsts            410884823                       # Number of load instructions executed
system.cpu0.iew.iewExecSquashedInsts          4959325                       # Number of squashed instructions skipped in execute
system.cpu0.iew.iewExecutedInsts           1292847421                       # Number of executed instructions
system.cpu0.iew.iewIQFullEvents               1027812                       # Number of times the IQ has become full, causing a stall
system.cpu0.iew.iewIdleCycles                       0                       # Number of cycles IEW is idle
system.cpu0.iew.iewLSQFullEvents              8180564                       # Number of times the LSQ has become full, causing a stall
system.cpu0.iew.iewSquashCycles               9118251                       # Number of cycles IEW is squashing
system.cpu0.iew.iewUnblockCycles             10467582                       # Number of cycles IEW is unblocking
system.cpu0.iew.lsq.thread0.blockedLoads            0                       # Number of blocked loads due to partial load-store forwarding
system.cpu0.iew.lsq.thread0.cacheBlocked       212210                       # Number of times an access to memory failed due to the cache being blocked
system.cpu0.iew.lsq.thread0.forwLoads        22172154                       # Number of loads that had data forwarded from stores
system.cpu0.iew.lsq.thread0.ignoredResponses        76861                       # Number of memory responses ignored because the instruction is squashed
system.cpu0.iew.lsq.thread0.invAddrLoads            0                       # Number of loads ignored due to an invalid address
system.cpu0.iew.lsq.thread0.invAddrSwpfs            0                       # Number of software prefetches ignored due to an invalid address
system.cpu0.iew.lsq.thread0.memOrderViolation         7501                       # Number of memory ordering violations
system.cpu0.iew.lsq.thread0.rescheduledLoads      4916353                       # Number of loads that were rescheduled
system.cpu0.iew.lsq.thread0.squashedLoads     19969286                       # Number of loads squashed
system.cpu0.iew.lsq.thread0.squashedStores      4980093                       # Number of stores squashed
system.cpu0.iew.memOrderViolationEvents          7501                       # Number of memory order violations
system.cpu0.iew.predictedNotTakenIncorrect       400663                       # Number of branches that were predicted not taken incorrectly
system.cpu0.iew.predictedTakenIncorrect       8782307                       # Number of branches that were predicted taken incorrectly
system.cpu0.iew.wb_consumers                594253204                       # num instructions consuming a value
system.cpu0.iew.wb_count                   1284066006                       # cumulative count of insts written-back
system.cpu0.iew.wb_fanout                    0.838769                       # average fanout of values written-back
system.cpu0.iew.wb_producers                498441217                       # num instructions producing a value
system.cpu0.iew.wb_rate                      0.606413                       # insts written-back per cycle
system.cpu0.iew.wb_sent                    1284189508                       # cumulative count of insts sent to commit
system.cpu0.int_regfile_reads              1586584199                       # number of integer regfile reads
system.cpu0.int_regfile_writes              823402289                       # number of integer regfile writes
system.cpu0.ipc                              0.590570                       # IPC: Instructions Per Cycle
system.cpu0.ipc_total                        0.590570                       # IPC: Total IPC of All Threads
system.cpu0.iq.FU_type_0::No_OpClass          2106189      0.16%      0.16% # Type of FU issued
system.cpu0.iq.FU_type_0::IntAlu            717235370     55.27%     55.43% # Type of FU issued
system.cpu0.iq.FU_type_0::IntMult            11842240      0.91%     56.34% # Type of FU issued
system.cpu0.iq.FU_type_0::IntDiv              2100414      0.16%     56.50% # Type of FU issued
system.cpu0.iq.FU_type_0::FloatAdd                  0      0.00%     56.50% # Type of FU issued
system.cpu0.iq.FU_type_0::FloatCmp                  4      0.00%     56.50% # Type of FU issued
system.cpu0.iq.FU_type_0::FloatCvt                 12      0.00%     56.50% # Type of FU issued
system.cpu0.iq.FU_type_0::FloatMult                 0      0.00%     56.50% # Type of FU issued
system.cpu0.iq.FU_type_0::FloatMultAcc              0      0.00%     56.50% # Type of FU issued
system.cpu0.iq.FU_type_0::FloatDiv                  2      0.00%     56.50% # Type of FU issued
system.cpu0.iq.FU_type_0::FloatMisc                 4      0.00%     56.50% # Type of FU issued
system.cpu0.iq.FU_type_0::FloatSqrt                 0      0.00%     56.50% # Type of FU issued
system.cpu0.iq.FU_type_0::SimdAdd                   0      0.00%     56.50% # Type of FU issued
system.cpu0.iq.FU_type_0::SimdAddAcc                0      0.00%     56.50% # Type of FU issued
system.cpu0.iq.FU_type_0::SimdAlu                   0      0.00%     56.50% # Type of FU issued
system.cpu0.iq.FU_type_0::SimdCmp                   0      0.00%     56.50% # Type of FU issued
system.cpu0.iq.FU_type_0::SimdCvt                   0      0.00%     56.50% # Type of FU issued
system.cpu0.iq.FU_type_0::SimdMisc                  0      0.00%     56.50% # Type of FU issued
system.cpu0.iq.FU_type_0::SimdMult                  0      0.00%     56.50% # Type of FU issued
system.cpu0.iq.FU_type_0::SimdMultAcc               0      0.00%     56.50% # Type of FU issued
system.cpu0.iq.FU_type_0::SimdShift                 0      0.00%     56.50% # Type of FU issued
system.cpu0.iq.FU_type_0::SimdShiftAcc              0      0.00%     56.50% # Type of FU issued
system.cpu0.iq.FU_type_0::SimdDiv                   0      0.00%     56.50% # Type of FU issued
system.cpu0.iq.FU_type_0::SimdSqrt                  0      0.00%     56.50% # Type of FU issued
system.cpu0.iq.FU_type_0::SimdFloatAdd              0      0.00%     56.50% # Type of FU issued
system.cpu0.iq.FU_type_0::SimdFloatAlu              0      0.00%     56.50% # Type of FU issued
system.cpu0.iq.FU_type_0::SimdFloatCmp              0      0.00%     56.50% # Type of FU issued
system.cpu0.iq.FU_type_0::SimdFloatCvt              0      0.00%     56.50% # Type of FU issued
system.cpu0.iq.FU_type_0::SimdFloatDiv              0      0.00%     56.50% # Type of FU issued
system.cpu0.iq.FU_type_0::SimdFloatMisc             0      0.00%     56.50% # Type of FU issued
system.cpu0.iq.FU_type_0::SimdFloatMult             0      0.00%     56.50% # Type of FU issued
system.cpu0.iq.FU_type_0::SimdFloatMultAcc            0      0.00%     56.50% # Type of FU issued
system.cpu0.iq.FU_type_0::SimdFloatSqrt             0      0.00%     56.50% # Type of FU issued
system.cpu0.iq.FU_type_0::SimdReduceAdd             0      0.00%     56.50% # Type of FU issued
system.cpu0.iq.FU_type_0::SimdReduceAlu             0      0.00%     56.50% # Type of FU issued
system.cpu0.iq.FU_type_0::SimdReduceCmp             0      0.00%     56.50% # Type of FU issued
system.cpu0.iq.FU_type_0::SimdFloatReduceAdd            0      0.00%     56.50% # Type of FU issued
system.cpu0.iq.FU_type_0::SimdFloatReduceCmp            0      0.00%     56.50% # Type of FU issued
system.cpu0.iq.FU_type_0::SimdAes                   0      0.00%     56.50% # Type of FU issued
system.cpu0.iq.FU_type_0::SimdAesMix                0      0.00%     56.50% # Type of FU issued
system.cpu0.iq.FU_type_0::SimdSha1Hash              0      0.00%     56.50% # Type of FU issued
system.cpu0.iq.FU_type_0::SimdSha1Hash2             0      0.00%     56.50% # Type of FU issued
system.cpu0.iq.FU_type_0::SimdSha256Hash            0      0.00%     56.50% # Type of FU issued
system.cpu0.iq.FU_type_0::SimdSha256Hash2            0      0.00%     56.50% # Type of FU issued
system.cpu0.iq.FU_type_0::SimdShaSigma2             0      0.00%     56.50% # Type of FU issued
system.cpu0.iq.FU_type_0::SimdShaSigma3             0      0.00%     56.50% # Type of FU issued
system.cpu0.iq.FU_type_0::SimdPredAlu               0      0.00%     56.50% # Type of FU issued
system.cpu0.iq.FU_type_0::MemRead           413734158     31.88%     88.38% # Type of FU issued
system.cpu0.iq.FU_type_0::MemWrite          150788323     11.62%    100.00% # Type of FU issued
system.cpu0.iq.FU_type_0::FloatMemRead             10      0.00%    100.00% # Type of FU issued
system.cpu0.iq.FU_type_0::FloatMemWrite            20      0.00%    100.00% # Type of FU issued
system.cpu0.iq.FU_type_0::IprAccess                 0      0.00%    100.00% # Type of FU issued
system.cpu0.iq.FU_type_0::InstPrefetch              0      0.00%    100.00% # Type of FU issued
system.cpu0.iq.FU_type_0::total            1297806746                       # Type of FU issued
system.cpu0.iq.fp_alu_accesses                     56                       # Number of floating point alu accesses
system.cpu0.iq.fp_inst_queue_reads                108                       # Number of floating instruction queue reads
system.cpu0.iq.fp_inst_queue_wakeup_accesses           52                       # Number of floating instruction queue wakeup accesses
system.cpu0.iq.fp_inst_queue_writes                54                       # Number of floating instruction queue writes
system.cpu0.iq.fu_busy_cnt                    1876392                       # FU busy when requested
system.cpu0.iq.fu_busy_rate                  0.001446                       # FU busy rate (busy events/executed inst)
system.cpu0.iq.fu_full::No_OpClass                  0      0.00%      0.00% # attempts to use FU when none available
system.cpu0.iq.fu_full::IntAlu                 346216     18.45%     18.45% # attempts to use FU when none available
system.cpu0.iq.fu_full::IntMult                    30      0.00%     18.45% # attempts to use FU when none available
system.cpu0.iq.fu_full::IntDiv                      0      0.00%     18.45% # attempts to use FU when none available
system.cpu0.iq.fu_full::FloatAdd                    0      0.00%     18.45% # attempts to use FU when none available
system.cpu0.iq.fu_full::FloatCmp                    0      0.00%     18.45% # attempts to use FU when none available
system.cpu0.iq.fu_full::FloatCvt                    0      0.00%     18.45% # attempts to use FU when none available
system.cpu0.iq.fu_full::FloatMult                   0      0.00%     18.45% # attempts to use FU when none available
system.cpu0.iq.fu_full::FloatMultAcc                0      0.00%     18.45% # attempts to use FU when none available
system.cpu0.iq.fu_full::FloatDiv                    0      0.00%     18.45% # attempts to use FU when none available
system.cpu0.iq.fu_full::FloatMisc                   0      0.00%     18.45% # attempts to use FU when none available
system.cpu0.iq.fu_full::FloatSqrt                   0      0.00%     18.45% # attempts to use FU when none available
system.cpu0.iq.fu_full::SimdAdd                     0      0.00%     18.45% # attempts to use FU when none available
system.cpu0.iq.fu_full::SimdAddAcc                  0      0.00%     18.45% # attempts to use FU when none available
system.cpu0.iq.fu_full::SimdAlu                     0      0.00%     18.45% # attempts to use FU when none available
system.cpu0.iq.fu_full::SimdCmp                     0      0.00%     18.45% # attempts to use FU when none available
system.cpu0.iq.fu_full::SimdCvt                     0      0.00%     18.45% # attempts to use FU when none available
system.cpu0.iq.fu_full::SimdMisc                    0      0.00%     18.45% # attempts to use FU when none available
system.cpu0.iq.fu_full::SimdMult                    0      0.00%     18.45% # attempts to use FU when none available
system.cpu0.iq.fu_full::SimdMultAcc                 0      0.00%     18.45% # attempts to use FU when none available
system.cpu0.iq.fu_full::SimdShift                   0      0.00%     18.45% # attempts to use FU when none available
system.cpu0.iq.fu_full::SimdShiftAcc                0      0.00%     18.45% # attempts to use FU when none available
system.cpu0.iq.fu_full::SimdDiv                     0      0.00%     18.45% # attempts to use FU when none available
system.cpu0.iq.fu_full::SimdSqrt                    0      0.00%     18.45% # attempts to use FU when none available
system.cpu0.iq.fu_full::SimdFloatAdd                0      0.00%     18.45% # attempts to use FU when none available
system.cpu0.iq.fu_full::SimdFloatAlu                0      0.00%     18.45% # attempts to use FU when none available
system.cpu0.iq.fu_full::SimdFloatCmp                0      0.00%     18.45% # attempts to use FU when none available
system.cpu0.iq.fu_full::SimdFloatCvt                0      0.00%     18.45% # attempts to use FU when none available
system.cpu0.iq.fu_full::SimdFloatDiv                0      0.00%     18.45% # attempts to use FU when none available
system.cpu0.iq.fu_full::SimdFloatMisc               0      0.00%     18.45% # attempts to use FU when none available
system.cpu0.iq.fu_full::SimdFloatMult               0      0.00%     18.45% # attempts to use FU when none available
system.cpu0.iq.fu_full::SimdFloatMultAcc            0      0.00%     18.45% # attempts to use FU when none available
system.cpu0.iq.fu_full::SimdFloatSqrt               0      0.00%     18.45% # attempts to use FU when none available
system.cpu0.iq.fu_full::SimdReduceAdd               0      0.00%     18.45% # attempts to use FU when none available
system.cpu0.iq.fu_full::SimdReduceAlu               0      0.00%     18.45% # attempts to use FU when none available
system.cpu0.iq.fu_full::SimdReduceCmp               0      0.00%     18.45% # attempts to use FU when none available
system.cpu0.iq.fu_full::SimdFloatReduceAdd            0      0.00%     18.45% # attempts to use FU when none available
system.cpu0.iq.fu_full::SimdFloatReduceCmp            0      0.00%     18.45% # attempts to use FU when none available
system.cpu0.iq.fu_full::SimdAes                     0      0.00%     18.45% # attempts to use FU when none available
system.cpu0.iq.fu_full::SimdAesMix                  0      0.00%     18.45% # attempts to use FU when none available
system.cpu0.iq.fu_full::SimdSha1Hash                0      0.00%     18.45% # attempts to use FU when none available
system.cpu0.iq.fu_full::SimdSha1Hash2               0      0.00%     18.45% # attempts to use FU when none available
system.cpu0.iq.fu_full::SimdSha256Hash              0      0.00%     18.45% # attempts to use FU when none available
system.cpu0.iq.fu_full::SimdSha256Hash2             0      0.00%     18.45% # attempts to use FU when none available
system.cpu0.iq.fu_full::SimdShaSigma2               0      0.00%     18.45% # attempts to use FU when none available
system.cpu0.iq.fu_full::SimdShaSigma3               0      0.00%     18.45% # attempts to use FU when none available
system.cpu0.iq.fu_full::SimdPredAlu                 0      0.00%     18.45% # attempts to use FU when none available
system.cpu0.iq.fu_full::MemRead               1134143     60.44%     78.90% # attempts to use FU when none available
system.cpu0.iq.fu_full::MemWrite               395999     21.10%    100.00% # attempts to use FU when none available
system.cpu0.iq.fu_full::FloatMemRead                0      0.00%    100.00% # attempts to use FU when none available
system.cpu0.iq.fu_full::FloatMemWrite               4      0.00%    100.00% # attempts to use FU when none available
system.cpu0.iq.fu_full::IprAccess                   0      0.00%    100.00% # attempts to use FU when none available
system.cpu0.iq.fu_full::InstPrefetch                0      0.00%    100.00% # attempts to use FU when none available
system.cpu0.iq.int_alu_accesses            1297576893                       # Number of integer alu accesses
system.cpu0.iq.int_inst_queue_reads        4569987495                       # Number of integer instruction queue reads
system.cpu0.iq.int_inst_queue_wakeup_accesses   1284065954                       # Number of integer instruction queue wakeup accesses
system.cpu0.iq.int_inst_queue_writes       1344562072                       # Number of integer instruction queue writes
system.cpu0.iq.iqInstsAdded                1294902021                       # Number of instructions added to the IQ (excludes non-spec)
system.cpu0.iq.iqInstsIssued               1297806746                       # Number of instructions issued
system.cpu0.iq.iqNonSpecInstsAdded            3160972                       # Number of non-speculative instructions added to the IQ
system.cpu0.iq.iqSquashedInstsExamined       46491869                       # Number of squashed instructions iterated over during squash; mainly for profiling
system.cpu0.iq.iqSquashedInstsIssued           127443                       # Number of squashed instructions issued
system.cpu0.iq.iqSquashedNonSpecRemoved           377                       # Number of squashed non-spec instructions that were removed
system.cpu0.iq.iqSquashedOperandsExamined     13803852                       # Number of squashed operands that are examined and possibly removed from graph
system.cpu0.iq.issued_per_cycle::samples   1972370276                       # Number of insts issued each cycle
system.cpu0.iq.issued_per_cycle::mean        0.657993                       # Number of insts issued each cycle
system.cpu0.iq.issued_per_cycle::stdev       0.869295                       # Number of insts issued each cycle
system.cpu0.iq.issued_per_cycle::underflows            0      0.00%      0.00% # Number of insts issued each cycle
system.cpu0.iq.issued_per_cycle::0         1071538739     54.33%     54.33% # Number of insts issued each cycle
system.cpu0.iq.issued_per_cycle::1          606190236     30.73%     85.06% # Number of insts issued each cycle
system.cpu0.iq.issued_per_cycle::2          208500678     10.57%     95.63% # Number of insts issued each cycle
system.cpu0.iq.issued_per_cycle::3           74779421      3.79%     99.42% # Number of insts issued each cycle
system.cpu0.iq.issued_per_cycle::4            8684696      0.44%     99.86% # Number of insts issued each cycle
system.cpu0.iq.issued_per_cycle::5            1148670      0.06%     99.92% # Number of insts issued each cycle
system.cpu0.iq.issued_per_cycle::6            1088045      0.06%     99.98% # Number of insts issued each cycle
system.cpu0.iq.issued_per_cycle::7             251841      0.01%     99.99% # Number of insts issued each cycle
system.cpu0.iq.issued_per_cycle::8             187950      0.01%    100.00% # Number of insts issued each cycle
system.cpu0.iq.issued_per_cycle::overflows            0      0.00%    100.00% # Number of insts issued each cycle
system.cpu0.iq.issued_per_cycle::min_value            0                       # Number of insts issued each cycle
system.cpu0.iq.issued_per_cycle::max_value            8                       # Number of insts issued each cycle
system.cpu0.iq.issued_per_cycle::total     1972370276                       # Number of insts issued each cycle
system.cpu0.iq.rate                          0.612903                       # Inst issue rate
system.cpu0.iq.vec_alu_accesses                     0                       # Number of vector alu accesses
system.cpu0.iq.vec_inst_queue_reads                 0                       # Number of vector instruction queue reads
system.cpu0.iq.vec_inst_queue_wakeup_accesses            0                       # Number of vector instruction queue wakeup accesses
system.cpu0.iq.vec_inst_queue_writes                0                       # Number of vector instruction queue writes
system.cpu0.itb.accesses                            0                       # DTB accesses
system.cpu0.itb.hits                                0                       # DTB hits
system.cpu0.itb.misses                              0                       # DTB misses
system.cpu0.itb.read_accesses                       0                       # DTB read accesses
system.cpu0.itb.read_hits                           0                       # DTB read hits
system.cpu0.itb.read_misses                         0                       # DTB read misses
system.cpu0.itb.write_accesses                      0                       # DTB write accesses
system.cpu0.itb.write_hits                          0                       # DTB write hits
system.cpu0.itb.write_misses                        0                       # DTB write misses
system.cpu0.memDep0.conflictingLoads         12239113                       # Number of conflicting loads.
system.cpu0.memDep0.conflictingStores         2973086                       # Number of conflicting stores.
system.cpu0.memDep0.insertedLoads           408666451                       # Number of loads inserted to the mem dependence unit.
system.cpu0.memDep0.insertedStores          152286842                       # Number of stores inserted to the mem dependence unit.
system.cpu0.misc_regfile_reads                   2069                       # number of misc regfile reads
system.cpu0.misc_regfile_writes                    22                       # number of misc regfile writes
system.cpu0.numCycles                      2117476283                       # number of cpu cycles simulated
system.cpu0.numWorkItemsCompleted                   0                       # number of work items this cpu completed
system.cpu0.numWorkItemsStarted                     0                       # number of work items this cpu started
system.cpu0.quiesceCycles                    10489164                       # Total number of cycles that CPU has spent quiesced or waiting for an interrupt
system.cpu0.rename.BlockCycles              239039336                       # Number of cycles rename is blocking
system.cpu0.rename.CommittedMaps            800543030                       # Number of HB maps that are committed
system.cpu0.rename.IQFullEvents               7582539                       # Number of times rename has blocked due to IQ full
system.cpu0.rename.IdleCycles               751348035                       # Number of cycles rename is idle
system.cpu0.rename.LQFullEvents              23523830                       # Number of times rename has blocked due to LQ full
system.cpu0.rename.ROBFullEvents                16347                       # Number of times rename has blocked due to ROB full
system.cpu0.rename.RenameLookups           1610342294                       # Number of register rename lookups that rename has made
system.cpu0.rename.RenamedInsts            1312267366                       # Number of instructions processed by rename
system.cpu0.rename.RenamedOperands          846753840                       # Number of destination operands rename has renamed
system.cpu0.rename.RunCycles                903155182                       # Number of cycles rename is running
system.cpu0.rename.SQFullEvents              38130920                       # Number of times rename has blocked due to SQ full
system.cpu0.rename.SquashCycles               9118251                       # Number of cycles rename is squashing
system.cpu0.rename.UnblockCycles             69535881                       # Number of cycles rename is unblocking
system.cpu0.rename.UndoneMaps                46210806                       # Number of HB maps that are undone due to squashing
system.cpu0.rename.fp_rename_lookups               44                       # Number of floating rename lookups
system.cpu0.rename.int_rename_lookups      1610342250                       # Number of integer rename lookups
system.cpu0.rename.serializeStallCycles        173591                       # count of cycles rename stalled for serializing inst
system.cpu0.rename.serializingInsts              6241                       # count of serializing insts renamed
system.cpu0.rename.skidInsts                 17951266                       # count of insts added to the skid buffer
system.cpu0.rename.tempSerializingInsts          6224                       # count of temporary serializing insts renamed
system.cpu0.rob.rob_reads                  3223485674                       # The number of ROB reads
system.cpu0.rob.rob_writes                 2609380171                       # The number of ROB writes
system.cpu0.timesIdled                       22371451                       # Number of times that the entire CPU went into an idle state and unscheduled itself
system.cpu0.workload.numSyscalls                 2036                       # Number of system calls
system.cpu1.branchPred.BTBCorrect                   0                       # Number of correct BTB predictions (this stat may not work properly.
system.cpu1.branchPred.BTBHitPct            85.279568                       # BTB Hit Percentage
system.cpu1.branchPred.BTBHits               12336666                       # Number of BTB hits
system.cpu1.branchPred.BTBLookups            14466145                       # Number of BTB lookups
system.cpu1.branchPred.RASInCorrect                 0                       # Number of incorrect RAS predictions.
system.cpu1.branchPred.condIncorrect          1798130                       # Number of conditional branches incorrect
system.cpu1.branchPred.condPredicted         18022826                       # Number of conditional branches predicted
system.cpu1.branchPred.indirectHits            668928                       # Number of indirect target hits.
system.cpu1.branchPred.indirectLookups         681770                       # Number of indirect predictor lookups.
system.cpu1.branchPred.indirectMisses           12842                       # Number of indirect misses.
system.cpu1.branchPred.lookups               21050348                       # Number of BP lookups
system.cpu1.branchPred.usedRAS                      0                       # Number of times the RAS was used to get a target.
system.cpu1.branchPredindirectMispredicted        42096                       # Number of mispredicted indirect branches.
system.cpu1.commit.amos                       1050247                       # Number of atomic instructions committed
system.cpu1.commit.branchMispredicts          1329075                       # The number of times a branch was mispredicted
system.cpu1.commit.branches                  16228328                       # Number of branches committed
system.cpu1.commit.bw_lim_events              2052076                       # number cycles where commit BW limit reached
system.cpu1.commit.commitNonSpecStalls        3151439                       # The number of times commit has been forced to stall to communicate backwards
system.cpu1.commit.commitSquashedInsts       11058259                       # The number of squashed insts skipped by commit
system.cpu1.commit.committedInsts            67677313                       # Number of instructions committed
system.cpu1.commit.committedOps              68727772                       # Number of ops (including micro ops) committed
system.cpu1.commit.committed_per_cycle::samples    306403332                       # Number of insts commited each cycle
system.cpu1.commit.committed_per_cycle::mean     0.224305                       # Number of insts commited each cycle
system.cpu1.commit.committed_per_cycle::stdev     0.940752                       # Number of insts commited each cycle
system.cpu1.commit.committed_per_cycle::underflows            0      0.00%      0.00% # Number of insts commited each cycle
system.cpu1.commit.committed_per_cycle::0    277777064     90.66%     90.66% # Number of insts commited each cycle
system.cpu1.commit.committed_per_cycle::1     14399170      4.70%     95.36% # Number of insts commited each cycle
system.cpu1.commit.committed_per_cycle::2      5174089      1.69%     97.05% # Number of insts commited each cycle
system.cpu1.commit.committed_per_cycle::3      4015483      1.31%     98.36% # Number of insts commited each cycle
system.cpu1.commit.committed_per_cycle::4      1115846      0.36%     98.72% # Number of insts commited each cycle
system.cpu1.commit.committed_per_cycle::5       493910      0.16%     98.88% # Number of insts commited each cycle
system.cpu1.commit.committed_per_cycle::6      1045425      0.34%     99.22% # Number of insts commited each cycle
system.cpu1.commit.committed_per_cycle::7       330269      0.11%     99.33% # Number of insts commited each cycle
system.cpu1.commit.committed_per_cycle::8      2052076      0.67%    100.00% # Number of insts commited each cycle
system.cpu1.commit.committed_per_cycle::overflows            0      0.00%    100.00% # Number of insts commited each cycle
system.cpu1.commit.committed_per_cycle::min_value            0                       # Number of insts commited each cycle
system.cpu1.commit.committed_per_cycle::max_value            8                       # Number of insts commited each cycle
system.cpu1.commit.committed_per_cycle::total    306403332                       # Number of insts commited each cycle
system.cpu1.commit.fp_insts                        12                       # Number of committed floating point instructions.
system.cpu1.commit.function_calls             1074791                       # Number of function calls committed.
system.cpu1.commit.int_insts                 65712313                       # Number of committed integer instructions.
system.cpu1.commit.loads                     16751634                       # Number of loads committed
system.cpu1.commit.membars                    2100554                       # Number of memory barriers committed
system.cpu1.commit.op_class_0::No_OpClass      2100554      3.06%      3.06% # Class of committed instruction
system.cpu1.commit.op_class_0::IntAlu        43600591     63.44%     66.50% # Class of committed instruction
system.cpu1.commit.op_class_0::IntMult             44      0.00%     66.50% # Class of committed instruction
system.cpu1.commit.op_class_0::IntDiv              88      0.00%     66.50% # Class of committed instruction
system.cpu1.commit.op_class_0::FloatAdd             0      0.00%     66.50% # Class of committed instruction
system.cpu1.commit.op_class_0::FloatCmp             0      0.00%     66.50% # Class of committed instruction
system.cpu1.commit.op_class_0::FloatCvt             0      0.00%     66.50% # Class of committed instruction
system.cpu1.commit.op_class_0::FloatMult            0      0.00%     66.50% # Class of committed instruction
system.cpu1.commit.op_class_0::FloatMultAcc            0      0.00%     66.50% # Class of committed instruction
system.cpu1.commit.op_class_0::FloatDiv             0      0.00%     66.50% # Class of committed instruction
system.cpu1.commit.op_class_0::FloatMisc            0      0.00%     66.50% # Class of committed instruction
system.cpu1.commit.op_class_0::FloatSqrt            0      0.00%     66.50% # Class of committed instruction
system.cpu1.commit.op_class_0::SimdAdd              0      0.00%     66.50% # Class of committed instruction
system.cpu1.commit.op_class_0::SimdAddAcc            0      0.00%     66.50% # Class of committed instruction
system.cpu1.commit.op_class_0::SimdAlu              0      0.00%     66.50% # Class of committed instruction
system.cpu1.commit.op_class_0::SimdCmp              0      0.00%     66.50% # Class of committed instruction
system.cpu1.commit.op_class_0::SimdCvt              0      0.00%     66.50% # Class of committed instruction
system.cpu1.commit.op_class_0::SimdMisc             0      0.00%     66.50% # Class of committed instruction
system.cpu1.commit.op_class_0::SimdMult             0      0.00%     66.50% # Class of committed instruction
system.cpu1.commit.op_class_0::SimdMultAcc            0      0.00%     66.50% # Class of committed instruction
system.cpu1.commit.op_class_0::SimdShift            0      0.00%     66.50% # Class of committed instruction
system.cpu1.commit.op_class_0::SimdShiftAcc            0      0.00%     66.50% # Class of committed instruction
system.cpu1.commit.op_class_0::SimdDiv              0      0.00%     66.50% # Class of committed instruction
system.cpu1.commit.op_class_0::SimdSqrt             0      0.00%     66.50% # Class of committed instruction
system.cpu1.commit.op_class_0::SimdFloatAdd            0      0.00%     66.50% # Class of committed instruction
system.cpu1.commit.op_class_0::SimdFloatAlu            0      0.00%     66.50% # Class of committed instruction
system.cpu1.commit.op_class_0::SimdFloatCmp            0      0.00%     66.50% # Class of committed instruction
system.cpu1.commit.op_class_0::SimdFloatCvt            0      0.00%     66.50% # Class of committed instruction
system.cpu1.commit.op_class_0::SimdFloatDiv            0      0.00%     66.50% # Class of committed instruction
system.cpu1.commit.op_class_0::SimdFloatMisc            0      0.00%     66.50% # Class of committed instruction
system.cpu1.commit.op_class_0::SimdFloatMult            0      0.00%     66.50% # Class of committed instruction
system.cpu1.commit.op_class_0::SimdFloatMultAcc            0      0.00%     66.50% # Class of committed instruction
system.cpu1.commit.op_class_0::SimdFloatSqrt            0      0.00%     66.50% # Class of committed instruction
system.cpu1.commit.op_class_0::SimdReduceAdd            0      0.00%     66.50% # Class of committed instruction
system.cpu1.commit.op_class_0::SimdReduceAlu            0      0.00%     66.50% # Class of committed instruction
system.cpu1.commit.op_class_0::SimdReduceCmp            0      0.00%     66.50% # Class of committed instruction
system.cpu1.commit.op_class_0::SimdFloatReduceAdd            0      0.00%     66.50% # Class of committed instruction
system.cpu1.commit.op_class_0::SimdFloatReduceCmp            0      0.00%     66.50% # Class of committed instruction
system.cpu1.commit.op_class_0::SimdAes              0      0.00%     66.50% # Class of committed instruction
system.cpu1.commit.op_class_0::SimdAesMix            0      0.00%     66.50% # Class of committed instruction
system.cpu1.commit.op_class_0::SimdSha1Hash            0      0.00%     66.50% # Class of committed instruction
system.cpu1.commit.op_class_0::SimdSha1Hash2            0      0.00%     66.50% # Class of committed instruction
system.cpu1.commit.op_class_0::SimdSha256Hash            0      0.00%     66.50% # Class of committed instruction
system.cpu1.commit.op_class_0::SimdSha256Hash2            0      0.00%     66.50% # Class of committed instruction
system.cpu1.commit.op_class_0::SimdShaSigma2            0      0.00%     66.50% # Class of committed instruction
system.cpu1.commit.op_class_0::SimdShaSigma3            0      0.00%     66.50% # Class of committed instruction
system.cpu1.commit.op_class_0::SimdPredAlu            0      0.00%     66.50% # Class of committed instruction
system.cpu1.commit.op_class_0::MemRead       17801881     25.90%     92.40% # Class of committed instruction
system.cpu1.commit.op_class_0::MemWrite       5224602      7.60%    100.00% # Class of committed instruction
system.cpu1.commit.op_class_0::FloatMemRead            0      0.00%    100.00% # Class of committed instruction
system.cpu1.commit.op_class_0::FloatMemWrite           12      0.00%    100.00% # Class of committed instruction
system.cpu1.commit.op_class_0::IprAccess            0      0.00%    100.00% # Class of committed instruction
system.cpu1.commit.op_class_0::InstPrefetch            0      0.00%    100.00% # Class of committed instruction
system.cpu1.commit.op_class_0::total         68727772                       # Class of committed instruction
system.cpu1.commit.refs                      23026495                       # Number of memory references committed
system.cpu1.commit.swp_count                        0                       # Number of s/w prefetches committed
system.cpu1.commit.vec_insts                        0                       # Number of committed Vector instructions.
system.cpu1.committedInsts                   67677313                       # Number of Instructions Simulated
system.cpu1.committedOps                     68727772                       # Number of Ops (including micro ops) Simulated
system.cpu1.cpi                              4.577647                       # CPI: Cycles Per Instruction
system.cpu1.cpi_total                        4.577647                       # CPI: Total CPI of All Threads
system.cpu1.decode.BlockedCycles            248117151                       # Number of cycles decode is blocked
system.cpu1.decode.BranchMispred               497908                       # Number of times decode detected a branch misprediction
system.cpu1.decode.BranchResolved            11662625                       # Number of times decode resolved a branch
system.cpu1.decode.DecodedInsts              84327286                       # Number of instructions handled by decode
system.cpu1.decode.IdleCycles                16590480                       # Number of cycles decode is idle
system.cpu1.decode.RunCycles                 39927066                       # Number of cycles decode is running
system.cpu1.decode.SquashCycles               1330595                       # Number of cycles decode is squashing
system.cpu1.decode.SquashedInsts              1232023                       # Number of squashed instructions handled by decode
system.cpu1.decode.UnblockCycles              2723106                       # Number of cycles decode is unblocking
system.cpu1.dtb.accesses                            0                       # DTB accesses
system.cpu1.dtb.hits                                0                       # DTB hits
system.cpu1.dtb.misses                              0                       # DTB misses
system.cpu1.dtb.read_accesses                       0                       # DTB read accesses
system.cpu1.dtb.read_hits                           0                       # DTB read hits
system.cpu1.dtb.read_misses                         0                       # DTB read misses
system.cpu1.dtb.write_accesses                      0                       # DTB write accesses
system.cpu1.dtb.write_hits                          0                       # DTB write hits
system.cpu1.dtb.write_misses                        0                       # DTB write misses
system.cpu1.fetch.Branches                   21050348                       # Number of branches that fetch encountered
system.cpu1.fetch.CacheLines                 14693532                       # Number of cache lines fetched
system.cpu1.fetch.Cycles                    290001838                       # Number of cycles fetch has run and was not squashing or blocked
system.cpu1.fetch.IcacheSquashes               328000                       # Number of outstanding Icache misses that were squashed
system.cpu1.fetch.IcacheWaitRetryStallCycles            7                       # Number of stall cycles due to full MSHR
system.cpu1.fetch.Insts                      88343130                       # Number of instructions fetch has processed
system.cpu1.fetch.MiscStallCycles                   2                       # Number of cycles fetch has spent waiting on interrupts, or bad addresses, or out of MSHRs
system.cpu1.fetch.SquashCycles                3599300                       # Number of cycles fetch has spent squashing
system.cpu1.fetch.branchRate                 0.067948                       # Number of branch fetches per cycle
system.cpu1.fetch.icacheStallCycles          16886901                       # Number of cycles fetch is stalled on an Icache miss
system.cpu1.fetch.predictedBranches          13005594                       # Number of branches that fetch has predicted taken
system.cpu1.fetch.rate                       0.285159                       # Number of inst fetches per cycle
system.cpu1.fetch.rateDist::samples         308688398                       # Number of instructions fetched each cycle (Total)
system.cpu1.fetch.rateDist::mean             0.289595                       # Number of instructions fetched each cycle (Total)
system.cpu1.fetch.rateDist::stdev            0.714379                       # Number of instructions fetched each cycle (Total)
system.cpu1.fetch.rateDist::underflows              0      0.00%      0.00% # Number of instructions fetched each cycle (Total)
system.cpu1.fetch.rateDist::0               251394523     81.44%     81.44% # Number of instructions fetched each cycle (Total)
system.cpu1.fetch.rateDist::1                36508999     11.83%     93.27% # Number of instructions fetched each cycle (Total)
system.cpu1.fetch.rateDist::2                12008338      3.89%     97.16% # Number of instructions fetched each cycle (Total)
system.cpu1.fetch.rateDist::3                 7029143      2.28%     99.43% # Number of instructions fetched each cycle (Total)
system.cpu1.fetch.rateDist::4                 1219625      0.40%     99.83% # Number of instructions fetched each cycle (Total)
system.cpu1.fetch.rateDist::5                  264625      0.09%     99.91% # Number of instructions fetched each cycle (Total)
system.cpu1.fetch.rateDist::6                  262560      0.09%    100.00% # Number of instructions fetched each cycle (Total)
system.cpu1.fetch.rateDist::7                       8      0.00%    100.00% # Number of instructions fetched each cycle (Total)
system.cpu1.fetch.rateDist::8                     577      0.00%    100.00% # Number of instructions fetched each cycle (Total)
system.cpu1.fetch.rateDist::overflows               0      0.00%    100.00% # Number of instructions fetched each cycle (Total)
system.cpu1.fetch.rateDist::min_value               0                       # Number of instructions fetched each cycle (Total)
system.cpu1.fetch.rateDist::max_value               8                       # Number of instructions fetched each cycle (Total)
system.cpu1.fetch.rateDist::total           308688398                       # Number of instructions fetched each cycle (Total)
system.cpu1.fp_regfile_reads                       12                       # number of floating regfile reads
system.cpu1.idleCycles                        1114477                       # Total number of cycles that the CPU has spent unscheduled due to idling
system.cpu1.iew.branchMispredicts             1393611                       # Number of branch mispredicts detected at execute
system.cpu1.iew.exec_branches                17810457                       # Number of branches executed
system.cpu1.iew.exec_nop                            0                       # number of nop insts executed
system.cpu1.iew.exec_rate                    0.246583                       # Inst execution rate
system.cpu1.iew.exec_refs                    25964394                       # number of memory reference insts executed
system.cpu1.iew.exec_stores                   6630700                       # Number of stores executed
system.cpu1.iew.exec_swp                            0                       # number of swp insts executed
system.cpu1.iew.iewBlockCycles              204140431                       # Number of cycles IEW is blocking
system.cpu1.iew.iewDispLoadInsts             19712280                       # Number of dispatched load instructions
system.cpu1.iew.iewDispNonSpecInsts           1051113                       # Number of dispatched non-speculative instructions
system.cpu1.iew.iewDispSquashedInsts          1378306                       # Number of squashed instructions skipped by dispatch
system.cpu1.iew.iewDispStoreInsts             6981940                       # Number of dispatched store instructions
system.cpu1.iew.iewDispatchedInsts           79761363                       # Number of instructions dispatched to IQ
system.cpu1.iew.iewExecLoadInsts             19333694                       # Number of load instructions executed
system.cpu1.iew.iewExecSquashedInsts          1314613                       # Number of squashed instructions skipped in execute
system.cpu1.iew.iewExecutedInsts             76392059                       # Number of executed instructions
system.cpu1.iew.iewIQFullEvents               1069597                       # Number of times the IQ has become full, causing a stall
system.cpu1.iew.iewIdleCycles                       0                       # Number of cycles IEW is idle
system.cpu1.iew.iewLSQFullEvents              3967343                       # Number of times the LSQ has become full, causing a stall
system.cpu1.iew.iewSquashCycles               1330595                       # Number of cycles IEW is squashing
system.cpu1.iew.iewUnblockCycles              6290665                       # Number of cycles IEW is unblocking
system.cpu1.iew.lsq.thread0.blockedLoads            0                       # Number of blocked loads due to partial load-store forwarding
system.cpu1.iew.lsq.thread0.cacheBlocked        93686                       # Number of times an access to memory failed due to the cache being blocked
system.cpu1.iew.lsq.thread0.forwLoads          722101                       # Number of loads that had data forwarded from stores
system.cpu1.iew.lsq.thread0.ignoredResponses        32534                       # Number of memory responses ignored because the instruction is squashed
system.cpu1.iew.lsq.thread0.invAddrLoads            0                       # Number of loads ignored due to an invalid address
system.cpu1.iew.lsq.thread0.invAddrSwpfs            0                       # Number of software prefetches ignored due to an invalid address
system.cpu1.iew.lsq.thread0.memOrderViolation         2098                       # Number of memory ordering violations
system.cpu1.iew.lsq.thread0.rescheduledLoads        10840                       # Number of loads that were rescheduled
system.cpu1.iew.lsq.thread0.squashedLoads      2960646                       # Number of loads squashed
system.cpu1.iew.lsq.thread0.squashedStores       707079                       # Number of stores squashed
system.cpu1.iew.memOrderViolationEvents          2098                       # Number of memory order violations
system.cpu1.iew.predictedNotTakenIncorrect       404811                       # Number of branches that were predicted not taken incorrectly
system.cpu1.iew.predictedTakenIncorrect        988800                       # Number of branches that were predicted taken incorrectly
system.cpu1.iew.wb_consumers                 43857162                       # num instructions consuming a value
system.cpu1.iew.wb_count                     75217179                       # cumulative count of insts written-back
system.cpu1.iew.wb_fanout                    0.820907                       # average fanout of values written-back
system.cpu1.iew.wb_producers                 36002642                       # num instructions producing a value
system.cpu1.iew.wb_rate                      0.242790                       # insts written-back per cycle
system.cpu1.iew.wb_sent                      75268834                       # cumulative count of insts sent to commit
system.cpu1.int_regfile_reads                97030740                       # number of integer regfile reads
system.cpu1.int_regfile_writes               50398390                       # number of integer regfile writes
system.cpu1.ipc                              0.218453                       # IPC: Instructions Per Cycle
system.cpu1.ipc_total                        0.218453                       # IPC: Total IPC of All Threads
system.cpu1.iq.FU_type_0::No_OpClass          2100775      2.70%      2.70% # Type of FU issued
system.cpu1.iq.FU_type_0::IntAlu             49232046     63.36%     66.06% # Type of FU issued
system.cpu1.iq.FU_type_0::IntMult                  52      0.00%     66.06% # Type of FU issued
system.cpu1.iq.FU_type_0::IntDiv                   90      0.00%     66.06% # Type of FU issued
system.cpu1.iq.FU_type_0::FloatAdd                  0      0.00%     66.06% # Type of FU issued
system.cpu1.iq.FU_type_0::FloatCmp                  0      0.00%     66.06% # Type of FU issued
system.cpu1.iq.FU_type_0::FloatCvt                  0      0.00%     66.06% # Type of FU issued
system.cpu1.iq.FU_type_0::FloatMult                 0      0.00%     66.06% # Type of FU issued
system.cpu1.iq.FU_type_0::FloatMultAcc              0      0.00%     66.06% # Type of FU issued
system.cpu1.iq.FU_type_0::FloatDiv                  0      0.00%     66.06% # Type of FU issued
system.cpu1.iq.FU_type_0::FloatMisc                 0      0.00%     66.06% # Type of FU issued
system.cpu1.iq.FU_type_0::FloatSqrt                 0      0.00%     66.06% # Type of FU issued
system.cpu1.iq.FU_type_0::SimdAdd                   0      0.00%     66.06% # Type of FU issued
system.cpu1.iq.FU_type_0::SimdAddAcc                0      0.00%     66.06% # Type of FU issued
system.cpu1.iq.FU_type_0::SimdAlu                   0      0.00%     66.06% # Type of FU issued
system.cpu1.iq.FU_type_0::SimdCmp                   0      0.00%     66.06% # Type of FU issued
system.cpu1.iq.FU_type_0::SimdCvt                   0      0.00%     66.06% # Type of FU issued
system.cpu1.iq.FU_type_0::SimdMisc                  0      0.00%     66.06% # Type of FU issued
system.cpu1.iq.FU_type_0::SimdMult                  0      0.00%     66.06% # Type of FU issued
system.cpu1.iq.FU_type_0::SimdMultAcc               0      0.00%     66.06% # Type of FU issued
system.cpu1.iq.FU_type_0::SimdShift                 0      0.00%     66.06% # Type of FU issued
system.cpu1.iq.FU_type_0::SimdShiftAcc              0      0.00%     66.06% # Type of FU issued
system.cpu1.iq.FU_type_0::SimdDiv                   0      0.00%     66.06% # Type of FU issued
system.cpu1.iq.FU_type_0::SimdSqrt                  0      0.00%     66.06% # Type of FU issued
system.cpu1.iq.FU_type_0::SimdFloatAdd              0      0.00%     66.06% # Type of FU issued
system.cpu1.iq.FU_type_0::SimdFloatAlu              0      0.00%     66.06% # Type of FU issued
system.cpu1.iq.FU_type_0::SimdFloatCmp              0      0.00%     66.06% # Type of FU issued
system.cpu1.iq.FU_type_0::SimdFloatCvt              0      0.00%     66.06% # Type of FU issued
system.cpu1.iq.FU_type_0::SimdFloatDiv              0      0.00%     66.06% # Type of FU issued
system.cpu1.iq.FU_type_0::SimdFloatMisc             0      0.00%     66.06% # Type of FU issued
system.cpu1.iq.FU_type_0::SimdFloatMult             0      0.00%     66.06% # Type of FU issued
system.cpu1.iq.FU_type_0::SimdFloatMultAcc            0      0.00%     66.06% # Type of FU issued
system.cpu1.iq.FU_type_0::SimdFloatSqrt             0      0.00%     66.06% # Type of FU issued
system.cpu1.iq.FU_type_0::SimdReduceAdd             0      0.00%     66.06% # Type of FU issued
system.cpu1.iq.FU_type_0::SimdReduceAlu             0      0.00%     66.06% # Type of FU issued
system.cpu1.iq.FU_type_0::SimdReduceCmp             0      0.00%     66.06% # Type of FU issued
system.cpu1.iq.FU_type_0::SimdFloatReduceAdd            0      0.00%     66.06% # Type of FU issued
system.cpu1.iq.FU_type_0::SimdFloatReduceCmp            0      0.00%     66.06% # Type of FU issued
system.cpu1.iq.FU_type_0::SimdAes                   0      0.00%     66.06% # Type of FU issued
system.cpu1.iq.FU_type_0::SimdAesMix                0      0.00%     66.06% # Type of FU issued
system.cpu1.iq.FU_type_0::SimdSha1Hash              0      0.00%     66.06% # Type of FU issued
system.cpu1.iq.FU_type_0::SimdSha1Hash2             0      0.00%     66.06% # Type of FU issued
system.cpu1.iq.FU_type_0::SimdSha256Hash            0      0.00%     66.06% # Type of FU issued
system.cpu1.iq.FU_type_0::SimdSha256Hash2            0      0.00%     66.06% # Type of FU issued
system.cpu1.iq.FU_type_0::SimdShaSigma2             0      0.00%     66.06% # Type of FU issued
system.cpu1.iq.FU_type_0::SimdShaSigma3             0      0.00%     66.06% # Type of FU issued
system.cpu1.iq.FU_type_0::SimdPredAlu               0      0.00%     66.06% # Type of FU issued
system.cpu1.iq.FU_type_0::MemRead            20722428     26.67%     92.73% # Type of FU issued
system.cpu1.iq.FU_type_0::MemWrite            5651269      7.27%    100.00% # Type of FU issued
system.cpu1.iq.FU_type_0::FloatMemRead              0      0.00%    100.00% # Type of FU issued
system.cpu1.iq.FU_type_0::FloatMemWrite            12      0.00%    100.00% # Type of FU issued
system.cpu1.iq.FU_type_0::IprAccess                 0      0.00%    100.00% # Type of FU issued
system.cpu1.iq.FU_type_0::InstPrefetch              0      0.00%    100.00% # Type of FU issued
system.cpu1.iq.FU_type_0::total              77706672                       # Type of FU issued
system.cpu1.iq.fp_alu_accesses                     16                       # Number of floating point alu accesses
system.cpu1.iq.fp_inst_queue_reads                 28                       # Number of floating instruction queue reads
system.cpu1.iq.fp_inst_queue_wakeup_accesses           12                       # Number of floating instruction queue wakeup accesses
system.cpu1.iq.fp_inst_queue_writes                12                       # Number of floating instruction queue writes
system.cpu1.iq.fu_busy_cnt                    1578099                       # FU busy when requested
system.cpu1.iq.fu_busy_rate                  0.020308                       # FU busy rate (busy events/executed inst)
system.cpu1.iq.fu_full::No_OpClass                  0      0.00%      0.00% # attempts to use FU when none available
system.cpu1.iq.fu_full::IntAlu                 332729     21.08%     21.08% # attempts to use FU when none available
system.cpu1.iq.fu_full::IntMult                     0      0.00%     21.08% # attempts to use FU when none available
system.cpu1.iq.fu_full::IntDiv                      0      0.00%     21.08% # attempts to use FU when none available
system.cpu1.iq.fu_full::FloatAdd                    0      0.00%     21.08% # attempts to use FU when none available
system.cpu1.iq.fu_full::FloatCmp                    0      0.00%     21.08% # attempts to use FU when none available
system.cpu1.iq.fu_full::FloatCvt                    0      0.00%     21.08% # attempts to use FU when none available
system.cpu1.iq.fu_full::FloatMult                   0      0.00%     21.08% # attempts to use FU when none available
system.cpu1.iq.fu_full::FloatMultAcc                0      0.00%     21.08% # attempts to use FU when none available
system.cpu1.iq.fu_full::FloatDiv                    0      0.00%     21.08% # attempts to use FU when none available
system.cpu1.iq.fu_full::FloatMisc                   0      0.00%     21.08% # attempts to use FU when none available
system.cpu1.iq.fu_full::FloatSqrt                   0      0.00%     21.08% # attempts to use FU when none available
system.cpu1.iq.fu_full::SimdAdd                     0      0.00%     21.08% # attempts to use FU when none available
system.cpu1.iq.fu_full::SimdAddAcc                  0      0.00%     21.08% # attempts to use FU when none available
system.cpu1.iq.fu_full::SimdAlu                     0      0.00%     21.08% # attempts to use FU when none available
system.cpu1.iq.fu_full::SimdCmp                     0      0.00%     21.08% # attempts to use FU when none available
system.cpu1.iq.fu_full::SimdCvt                     0      0.00%     21.08% # attempts to use FU when none available
system.cpu1.iq.fu_full::SimdMisc                    0      0.00%     21.08% # attempts to use FU when none available
system.cpu1.iq.fu_full::SimdMult                    0      0.00%     21.08% # attempts to use FU when none available
system.cpu1.iq.fu_full::SimdMultAcc                 0      0.00%     21.08% # attempts to use FU when none available
system.cpu1.iq.fu_full::SimdShift                   0      0.00%     21.08% # attempts to use FU when none available
system.cpu1.iq.fu_full::SimdShiftAcc                0      0.00%     21.08% # attempts to use FU when none available
system.cpu1.iq.fu_full::SimdDiv                     0      0.00%     21.08% # attempts to use FU when none available
system.cpu1.iq.fu_full::SimdSqrt                    0      0.00%     21.08% # attempts to use FU when none available
system.cpu1.iq.fu_full::SimdFloatAdd                0      0.00%     21.08% # attempts to use FU when none available
system.cpu1.iq.fu_full::SimdFloatAlu                0      0.00%     21.08% # attempts to use FU when none available
system.cpu1.iq.fu_full::SimdFloatCmp                0      0.00%     21.08% # attempts to use FU when none available
system.cpu1.iq.fu_full::SimdFloatCvt                0      0.00%     21.08% # attempts to use FU when none available
system.cpu1.iq.fu_full::SimdFloatDiv                0      0.00%     21.08% # attempts to use FU when none available
system.cpu1.iq.fu_full::SimdFloatMisc               0      0.00%     21.08% # attempts to use FU when none available
system.cpu1.iq.fu_full::SimdFloatMult               0      0.00%     21.08% # attempts to use FU when none available
system.cpu1.iq.fu_full::SimdFloatMultAcc            0      0.00%     21.08% # attempts to use FU when none available
system.cpu1.iq.fu_full::SimdFloatSqrt               0      0.00%     21.08% # attempts to use FU when none available
system.cpu1.iq.fu_full::SimdReduceAdd               0      0.00%     21.08% # attempts to use FU when none available
system.cpu1.iq.fu_full::SimdReduceAlu               0      0.00%     21.08% # attempts to use FU when none available
system.cpu1.iq.fu_full::SimdReduceCmp               0      0.00%     21.08% # attempts to use FU when none available
system.cpu1.iq.fu_full::SimdFloatReduceAdd            0      0.00%     21.08% # attempts to use FU when none available
system.cpu1.iq.fu_full::SimdFloatReduceCmp            0      0.00%     21.08% # attempts to use FU when none available
system.cpu1.iq.fu_full::SimdAes                     0      0.00%     21.08% # attempts to use FU when none available
system.cpu1.iq.fu_full::SimdAesMix                  0      0.00%     21.08% # attempts to use FU when none available
system.cpu1.iq.fu_full::SimdSha1Hash                0      0.00%     21.08% # attempts to use FU when none available
system.cpu1.iq.fu_full::SimdSha1Hash2               0      0.00%     21.08% # attempts to use FU when none available
system.cpu1.iq.fu_full::SimdSha256Hash              0      0.00%     21.08% # attempts to use FU when none available
system.cpu1.iq.fu_full::SimdSha256Hash2             0      0.00%     21.08% # attempts to use FU when none available
system.cpu1.iq.fu_full::SimdShaSigma2               0      0.00%     21.08% # attempts to use FU when none available
system.cpu1.iq.fu_full::SimdShaSigma3               0      0.00%     21.08% # attempts to use FU when none available
system.cpu1.iq.fu_full::SimdPredAlu                 0      0.00%     21.08% # attempts to use FU when none available
system.cpu1.iq.fu_full::MemRead                979396     62.06%     83.15% # attempts to use FU when none available
[...]
system.cpu1.dcache.WriteReq_mshr_miss_latency::total  11999866956                       # number of WriteReq MSHR miss cycles
system.cpu1.dcache.WriteReq_mshr_miss_rate::.cpu1.data     0.047017                       # mshr miss rate for WriteReq accesses
system.cpu1.dcache.WriteReq_mshr_miss_rate::total     0.047017                       # mshr miss rate for WriteReq accesses
system.cpu1.dcache.WriteReq_avg_mshr_miss_latency::.cpu1.data 108064.073304                       # average WriteReq mshr miss latency
system.cpu1.dcache.WriteReq_avg_mshr_miss_latency::total 108064.073304                       # average WriteReq mshr miss latency
system.cpu1.dcache.LoadLockedReq_hits::.cpu1.data        16647                       # number of LoadLockedReq hits
system.cpu1.dcache.LoadLockedReq_hits::total        16647                       # number of LoadLockedReq hits
system.cpu1.dcache.LoadLockedReq_misses::.cpu1.data          708                       # number of LoadLockedReq misses
system.cpu1.dcache.LoadLockedReq_misses::total          708                       # number of LoadLockedReq misses
system.cpu1.dcache.LoadLockedReq_miss_latency::.cpu1.data     24245000                       # number of LoadLockedReq miss cycles
system.cpu1.dcache.LoadLockedReq_miss_latency::total     24245000                       # number of LoadLockedReq miss cycles
system.cpu1.dcache.LoadLockedReq_accesses::.cpu1.data        17355                       # number of LoadLockedReq accesses(hits+misses)
system.cpu1.dcache.LoadLockedReq_accesses::total        17355                       # number of LoadLockedReq accesses(hits+misses)
system.cpu1.dcache.LoadLockedReq_miss_rate::.cpu1.data     0.040795                       # miss rate for LoadLockedReq accesses
system.cpu1.dcache.LoadLockedReq_miss_rate::total     0.040795                       # miss rate for LoadLockedReq accesses
system.cpu1.dcache.LoadLockedReq_avg_miss_latency::.cpu1.data 34244.350282                       # average LoadLockedReq miss latency
system.cpu1.dcache.LoadLockedReq_avg_miss_latency::total 34244.350282                       # average LoadLockedReq miss latency
system.cpu1.dcache.LoadLockedReq_mshr_hits::.cpu1.data          149                       # number of LoadLockedReq MSHR hits
system.cpu1.dcache.LoadLockedReq_mshr_hits::total          149                       # number of LoadLockedReq MSHR hits
system.cpu1.dcache.LoadLockedReq_mshr_misses::.cpu1.data          559                       # number of LoadLockedReq MSHR misses
system.cpu1.dcache.LoadLockedReq_mshr_misses::total          559                       # number of LoadLockedReq MSHR misses
system.cpu1.dcache.LoadLockedReq_mshr_miss_latency::.cpu1.data     16735000                       # number of LoadLockedReq MSHR miss cycles
system.cpu1.dcache.LoadLockedReq_mshr_miss_latency::total     16735000                       # number of LoadLockedReq MSHR miss cycles
system.cpu1.dcache.LoadLockedReq_mshr_miss_rate::.cpu1.data     0.032210                       # mshr miss rate for LoadLockedReq accesses
system.cpu1.dcache.LoadLockedReq_mshr_miss_rate::total     0.032210                       # mshr miss rate for LoadLockedReq accesses
system.cpu1.dcache.LoadLockedReq_avg_mshr_miss_latency::.cpu1.data 29937.388193                       # average LoadLockedReq mshr miss latency
system.cpu1.dcache.LoadLockedReq_avg_mshr_miss_latency::total 29937.388193                       # average LoadLockedReq mshr miss latency
system.cpu1.dcache.StoreCondReq_hits::.cpu1.data        15835                       # number of StoreCondReq hits
system.cpu1.dcache.StoreCondReq_hits::total        15835                       # number of StoreCondReq hits
system.cpu1.dcache.StoreCondReq_misses::.cpu1.data          769                       # number of StoreCondReq misses
system.cpu1.dcache.StoreCondReq_misses::total          769                       # number of StoreCondReq misses
system.cpu1.dcache.StoreCondReq_miss_latency::.cpu1.data      6153000                       # number of StoreCondReq miss cycles
system.cpu1.dcache.StoreCondReq_miss_latency::total      6153000                       # number of StoreCondReq miss cycles
system.cpu1.dcache.StoreCondReq_accesses::.cpu1.data        16604                       # number of StoreCondReq accesses(hits+misses)
system.cpu1.dcache.StoreCondReq_accesses::total        16604                       # number of StoreCondReq accesses(hits+misses)
system.cpu1.dcache.StoreCondReq_miss_rate::.cpu1.data     0.046314                       # miss rate for StoreCondReq accesses
system.cpu1.dcache.StoreCondReq_miss_rate::total     0.046314                       # miss rate for StoreCondReq accesses
system.cpu1.dcache.StoreCondReq_avg_miss_latency::.cpu1.data  8001.300390                       # average StoreCondReq miss latency
system.cpu1.dcache.StoreCondReq_avg_miss_latency::total  8001.300390                       # average StoreCondReq miss latency
system.cpu1.dcache.StoreCondReq_mshr_misses::.cpu1.data          762                       # number of StoreCondReq MSHR misses
system.cpu1.dcache.StoreCondReq_mshr_misses::total          762                       # number of StoreCondReq MSHR misses
system.cpu1.dcache.StoreCondReq_mshr_miss_latency::.cpu1.data      5477000                       # number of StoreCondReq MSHR miss cycles
system.cpu1.dcache.StoreCondReq_mshr_miss_latency::total      5477000                       # number of StoreCondReq MSHR miss cycles
system.cpu1.dcache.StoreCondReq_mshr_miss_rate::.cpu1.data     0.045893                       # mshr miss rate for StoreCondReq accesses
system.cpu1.dcache.StoreCondReq_mshr_miss_rate::total     0.045893                       # mshr miss rate for StoreCondReq accesses
system.cpu1.dcache.StoreCondReq_avg_mshr_miss_latency::.cpu1.data  7187.664042                       # average StoreCondReq mshr miss latency
system.cpu1.dcache.StoreCondReq_avg_mshr_miss_latency::total  7187.664042                       # average StoreCondReq mshr miss latency
system.cpu1.dcache.StoreCondFailReq_miss_latency::.cpu1.data      1792500                       # number of StoreCondFailReq miss cycles
system.cpu1.dcache.StoreCondFailReq_miss_latency::total      1792500                       # number of StoreCondFailReq miss cycles
system.cpu1.dcache.StoreCondFailReq_avg_miss_latency::.cpu1.data          inf                       # average StoreCondFailReq miss latency
system.cpu1.dcache.StoreCondFailReq_avg_miss_latency::total          inf                       # average StoreCondFailReq miss latency
system.cpu1.dcache.StoreCondFailReq_mshr_miss_latency::.cpu1.data      1706500                       # number of StoreCondFailReq MSHR miss cycles
system.cpu1.dcache.StoreCondFailReq_mshr_miss_latency::total      1706500                       # number of StoreCondFailReq MSHR miss cycles
system.cpu1.dcache.StoreCondFailReq_avg_mshr_miss_latency::.cpu1.data          inf                       # average StoreCondFailReq mshr miss latency
system.cpu1.dcache.StoreCondFailReq_avg_mshr_miss_latency::total          inf                       # average StoreCondFailReq mshr miss latency
system.cpu1.dcache.SwapReq_hits::.cpu1.data          658                       # number of SwapReq hits
system.cpu1.dcache.SwapReq_hits::total            658                       # number of SwapReq hits
system.cpu1.dcache.SwapReq_misses::.cpu1.data         1313                       # number of SwapReq misses
system.cpu1.dcache.SwapReq_misses::total         1313                       # number of SwapReq misses
system.cpu1.dcache.SwapReq_miss_latency::.cpu1.data     14464999                       # number of SwapReq miss cycles
system.cpu1.dcache.SwapReq_miss_latency::total     14464999                       # number of SwapReq miss cycles
system.cpu1.dcache.SwapReq_accesses::.cpu1.data         1971                       # number of SwapReq accesses(hits+misses)
system.cpu1.dcache.SwapReq_accesses::total         1971                       # number of SwapReq accesses(hits+misses)
system.cpu1.dcache.SwapReq_miss_rate::.cpu1.data     0.666159                       # miss rate for SwapReq accesses
system.cpu1.dcache.SwapReq_miss_rate::total     0.666159                       # miss rate for SwapReq accesses
system.cpu1.dcache.SwapReq_avg_miss_latency::.cpu1.data 11016.754760                       # average SwapReq miss latency
system.cpu1.dcache.SwapReq_avg_miss_latency::total 11016.754760                       # average SwapReq miss latency
system.cpu1.dcache.SwapReq_mshr_misses::.cpu1.data         1313                       # number of SwapReq MSHR misses
system.cpu1.dcache.SwapReq_mshr_misses::total         1313                       # number of SwapReq MSHR misses
system.cpu1.dcache.SwapReq_mshr_miss_latency::.cpu1.data     13151999                       # number of SwapReq MSHR miss cycles
system.cpu1.dcache.SwapReq_mshr_miss_latency::total     13151999                       # number of SwapReq MSHR miss cycles
system.cpu1.dcache.SwapReq_mshr_miss_rate::.cpu1.data     0.666159                       # mshr miss rate for SwapReq accesses
system.cpu1.dcache.SwapReq_mshr_miss_rate::total     0.666159                       # mshr miss rate for SwapReq accesses
system.cpu1.dcache.SwapReq_avg_mshr_miss_latency::.cpu1.data 10016.754760                       # average SwapReq mshr miss latency
system.cpu1.dcache.SwapReq_avg_mshr_miss_latency::total 10016.754760                       # average SwapReq mshr miss latency
system.cpu1.dcache.tags.pwrStateResidencyTicks::UNDEFINED  45978432500                       # Cumulative time (in ticks) in various power states
system.cpu1.dcache.tags.tagsinuse           31.414917                       # Cycle average of tags in use
system.cpu1.dcache.tags.total_refs            7937656                       # Total number of references to valid blocks.
system.cpu1.dcache.tags.sampled_refs           497558                       # Sample count of references to valid blocks.
system.cpu1.dcache.tags.avg_refs            15.953228                       # Average number of references to valid blocks.
system.cpu1.dcache.tags.warmup_cycle                0                       # Cycle when the warmup percentage was hit.
system.cpu1.dcache.tags.occ_blocks::.cpu1.data    31.414917                       # Average occupied blocks per requestor
system.cpu1.dcache.tags.occ_percent::.cpu1.data     0.981716                       # Average percentage of cache occupancy
system.cpu1.dcache.tags.occ_percent::total     0.981716                       # Average percentage of cache occupancy
system.cpu1.dcache.tags.occ_task_id_blocks::1024           27                       # Occupied blocks per task id
system.cpu1.dcache.tags.age_task_id_blocks_1024::1           27                       # Occupied blocks per task id
system.cpu1.dcache.tags.occ_task_id_percent::1024     0.843750                       # Percentage of cache occupancy per task id
system.cpu1.dcache.tags.tag_accesses         25963045                       # Number of tag accesses
system.cpu1.dcache.tags.data_accesses        25963045                       # Number of data accesses
system.cpu_clk_domain.clock                       500                       # Clock period in ticks
system.tol2bus.pwrStateResidencyTicks::UNDEFINED  45978432500                       # Cumulative time (in ticks) in various power states
system.tol2bus.trans_dist::ReadResp           1688342                       # Transaction distribution
system.tol2bus.trans_dist::ReadRespWithInvalidate            6                       # Transaction distribution
system.tol2bus.trans_dist::WritebackDirty      1870068                       # Transaction distribution
system.tol2bus.trans_dist::WritebackClean      1217327                       # Transaction distribution
system.tol2bus.trans_dist::CleanEvict         3213415                       # Transaction distribution
system.tol2bus.trans_dist::HardPFReq           179409                       # Transaction distribution
system.tol2bus.trans_dist::UpgradeReq            5017                       # Transaction distribution
system.tol2bus.trans_dist::SCUpgradeReq          3568                       # Transaction distribution
system.tol2bus.trans_dist::UpgradeResp           8585                       # Transaction distribution
system.tol2bus.trans_dist::SCUpgradeFailReq          226                       # Transaction distribution
system.tol2bus.trans_dist::UpgradeFailResp          226                       # Transaction distribution
system.tol2bus.trans_dist::ReadExReq           479415                       # Transaction distribution
system.tol2bus.trans_dist::ReadExResp          479415                       # Transaction distribution
system.tol2bus.trans_dist::ReadCleanReq        119268                       # Transaction distribution
system.tol2bus.trans_dist::ReadSharedReq      1569079                       # Transaction distribution
system.tol2bus.trans_dist::InvalidateReq         3155                       # Transaction distribution
system.tol2bus.trans_dist::InvalidateResp         3155                       # Transaction distribution
system.tol2bus.pkt_count_system.cpu0.icache.mem_side::system.l2.cpu_side       216858                       # Packet count per connected master and slave (bytes)
system.tol2bus.pkt_count_system.cpu0.dcache.mem_side::system.l2.cpu_side      1657918                       # Packet count per connected master and slave (bytes)
system.tol2bus.pkt_count_system.cpu1.icache.mem_side::system.l2.cpu_side        47211                       # Packet count per connected master and slave (bytes)
system.tol2bus.pkt_count_system.cpu1.dcache.mem_side::system.l2.cpu_side      1487266                       # Packet count per connected master and slave (bytes)
system.tol2bus.pkt_count_system.cpu2.icache.mem_side::system.l2.cpu_side        47358                       # Packet count per connected master and slave (bytes)
system.tol2bus.pkt_count_system.cpu2.dcache.mem_side::system.l2.cpu_side      1494861                       # Packet count per connected master and slave (bytes)
system.tol2bus.pkt_count_system.cpu3.icache.mem_side::system.l2.cpu_side        46377                       # Packet count per connected master and slave (bytes)
system.tol2bus.pkt_count_system.cpu3.dcache.mem_side::system.l2.cpu_side      1496665                       # Packet count per connected master and slave (bytes)
system.tol2bus.pkt_count::total               6494514                       # Packet count per connected master and slave (bytes)
system.tol2bus.pkt_size_system.cpu0.icache.mem_side::system.l2.cpu_side      9252608                       # Cumulative packet size per connected master and slave (bytes)
system.tol2bus.pkt_size_system.cpu0.dcache.mem_side::system.l2.cpu_side     70268928                       # Cumulative packet size per connected master and slave (bytes)
system.tol2bus.pkt_size_system.cpu1.icache.mem_side::system.l2.cpu_side      2014336                       # Cumulative packet size per connected master and slave (bytes)
system.tol2bus.pkt_size_system.cpu1.dcache.mem_side::system.l2.cpu_side     63188800                       # Cumulative packet size per connected master and slave (bytes)
system.tol2bus.pkt_size_system.cpu2.icache.mem_side::system.l2.cpu_side      2020608                       # Cumulative packet size per connected master and slave (bytes)
system.tol2bus.pkt_size_system.cpu2.dcache.mem_side::system.l2.cpu_side     63509952                       # Cumulative packet size per connected master and slave (bytes)
system.tol2bus.pkt_size_system.cpu3.icache.mem_side::system.l2.cpu_side      1978752                       # Cumulative packet size per connected master and slave (bytes)
system.tol2bus.pkt_size_system.cpu3.dcache.mem_side::system.l2.cpu_side     63582016                       # Cumulative packet size per connected master and slave (bytes)
system.tol2bus.pkt_size::total              275816000                       # Cumulative packet size per connected master and slave (bytes)
system.tol2bus.snoops                         4345162                       # Total snoops (count)
system.tol2bus.snoopTraffic                  60528576                       # Total snoop traffic (bytes)
system.tol2bus.snoop_fanout::samples          6505206                       # Request fanout histogram
system.tol2bus.snoop_fanout::mean            0.347467                       # Request fanout histogram
system.tol2bus.snoop_fanout::stdev           0.547940                       # Request fanout histogram
system.tol2bus.snoop_fanout::underflows             0      0.00%      0.00% # Request fanout histogram
system.tol2bus.snoop_fanout::0                4401204     67.66%     67.66% # Request fanout histogram
system.tol2bus.snoop_fanout::1                2015558     30.98%     98.64% # Request fanout histogram
system.tol2bus.snoop_fanout::2                  35395      0.54%     99.18% # Request fanout histogram
system.tol2bus.snoop_fanout::3                  38202      0.59%     99.77% # Request fanout histogram
system.tol2bus.snoop_fanout::4                  14847      0.23%    100.00% # Request fanout histogram
system.tol2bus.snoop_fanout::5                      0      0.00%    100.00% # Request fanout histogram
system.tol2bus.snoop_fanout::6                      0      0.00%    100.00% # Request fanout histogram
system.tol2bus.snoop_fanout::7                      0      0.00%    100.00% # Request fanout histogram
system.tol2bus.snoop_fanout::8                      0      0.00%    100.00% # Request fanout histogram
system.tol2bus.snoop_fanout::overflows              0      0.00%    100.00% # Request fanout histogram
system.tol2bus.snoop_fanout::min_value              0                       # Request fanout histogram
system.tol2bus.snoop_fanout::max_value              4                       # Request fanout histogram
system.tol2bus.snoop_fanout::total            6505206                       # Request fanout histogram
system.tol2bus.reqLayer0.occupancy         4325955232                       # Layer occupancy (ticks)
system.tol2bus.reqLayer0.utilization              9.4                       # Layer utilization (%)
system.tol2bus.respLayer5.occupancy         751559361                       # Layer occupancy (ticks)
system.tol2bus.respLayer5.utilization             1.6                       # Layer utilization (%)
system.tol2bus.respLayer4.occupancy          25535405                       # Layer occupancy (ticks)
system.tol2bus.respLayer4.utilization             0.1                       # Layer utilization (%)
system.tol2bus.respLayer7.occupancy         752411943                       # Layer occupancy (ticks)
system.tol2bus.respLayer7.utilization             1.6                       # Layer utilization (%)
system.tol2bus.respLayer6.occupancy          25017588                       # Layer occupancy (ticks)
system.tol2bus.respLayer6.utilization             0.1                       # Layer utilization (%)
system.tol2bus.respLayer1.occupancy         828794176                       # Layer occupancy (ticks)
system.tol2bus.respLayer1.utilization             1.8                       # Layer utilization (%)
system.tol2bus.respLayer0.occupancy         108642467                       # Layer occupancy (ticks)
system.tol2bus.respLayer0.utilization             0.2                       # Layer utilization (%)
system.tol2bus.respLayer3.occupancy         747712755                       # Layer occupancy (ticks)
system.tol2bus.respLayer3.utilization             1.6                       # Layer utilization (%)
system.tol2bus.respLayer2.occupancy          25569692                       # Layer occupancy (ticks)
system.tol2bus.respLayer2.utilization             0.1                       # Layer utilization (%)

---------- End Simulation Statistics   ----------
