
---------- Begin Simulation Statistics ----------
final_tick                               1050841011500                       # Number of ticks from beginning of simulation (restored from checkpoints and never reset)
host_inst_rate                                  99939                       # Simulator instruction rate (inst/s)
host_mem_usage                                 739080                       # Number of bytes of host memory used
host_op_rate                                   100230                       # Simulator op (including micro ops) rate (op/s)
host_seconds                                 14418.10                       # Real time elapsed on the host
host_tick_rate                               72883470                       # Simulator tick rate (ticks/s)
sim_freq                                 1000000000000                       # Frequency of simulated ticks
sim_insts                                  1440924618                       # Number of instructions simulated
sim_ops                                    1445129615                       # Number of ops (including micro ops) simulated
sim_seconds                                  1.050841                       # Number of seconds simulated
sim_ticks                                1050841011500                       # Number of ticks simulated
system.cpu0.branchPred.BTBCorrect                   0                       # Number of correct BTB predictions (this stat may not work properly.
system.cpu0.branchPred.BTBHitPct            87.983195                       # BTB Hit Percentage
system.cpu0.branchPred.BTBHits              168097450                       # Number of BTB hits
system.cpu0.branchPred.BTBLookups           191056315                       # Number of BTB lookups
system.cpu0.branchPred.RASInCorrect                 0                       # Number of incorrect RAS predictions.
system.cpu0.branchPred.condIncorrect         14905895                       # Number of conditional branches incorrect
system.cpu0.branchPred.condPredicted        259246251                       # Number of conditional branches predicted
system.cpu0.branchPred.indirectHits          21839669                       # Number of indirect target hits.
system.cpu0.branchPred.indirectLookups       22396652                       # Number of indirect predictor lookups.
system.cpu0.branchPred.indirectMisses          556983                       # Number of indirect misses.
system.cpu0.branchPred.lookups              328984081                       # Number of BP lookups
system.cpu0.branchPred.usedRAS                      0                       # Number of times the RAS was used to get a target.
system.cpu0.branchPredindirectMispredicted      2148376                       # Number of mispredicted indirect branches.
system.cpu0.commit.amos                       1050454                       # Number of atomic instructions committed
system.cpu0.commit.branchMispredicts          9106065                       # The number of times a branch was mispredicted
system.cpu0.commit.branches                 313654884                       # Number of branches committed
system.cpu0.commit.bw_lim_events             33050738                       # number cycles where commit BW limit reached
system.cpu0.commit.commitNonSpecStalls        3160597                       # The number of times commit has been forced to stall to communicate backwards
system.cpu0.commit.commitSquashedInsts       46075583                       # The number of squashed insts skipped by commit
system.cpu0.commit.committedInsts          1250517598                       # Number of instructions committed
system.cpu0.commit.committedOps            1251571337                       # Number of ops (including micro ops) committed
system.cpu0.commit.committed_per_cycle::samples   1936922225                       # Number of insts commited each cycle
system.cpu0.commit.committed_per_cycle::mean     0.646165                       # Number of insts commited each cycle
system.cpu0.commit.committed_per_cycle::stdev     1.395503                       # Number of insts commited each cycle
system.cpu0.commit.committed_per_cycle::underflows            0      0.00%      0.00% # Number of insts commited each cycle
system.cpu0.commit.committed_per_cycle::0   1330434096     68.69%     68.69% # Number of insts commited each cycle
system.cpu0.commit.committed_per_cycle::1    361305544     18.65%     87.34% # Number of insts commited each cycle
system.cpu0.commit.committed_per_cycle::2     85261605      4.40%     91.74% # Number of insts commited each cycle
system.cpu0.commit.committed_per_cycle::3     83229796      4.30%     96.04% # Number of insts commited each cycle
system.cpu0.commit.committed_per_cycle::4     26145869      1.35%     97.39% # Number of insts commited each cycle
system.cpu0.commit.committed_per_cycle::5      8340427      0.43%     97.82% # Number of insts commited each cycle
system.cpu0.commit.committed_per_cycle::6      4717370      0.24%     98.06% # Number of insts commited each cycle
system.cpu0.commit.committed_per_cycle::7      4436780      0.23%     98.29% # Number of insts commited each cycle
system.cpu0.commit.committed_per_cycle::8     33050738      1.71%    100.00% # Number of insts commited each cycle
system.cpu0.commit.committed_per_cycle::overflows            0      0.00%    100.00% # Number of insts commited each cycle
system.cpu0.commit.committed_per_cycle::min_value            0                       # Number of insts commited each cycle
system.cpu0.commit.committed_per_cycle::max_value            8                       # Number of insts commited each cycle
system.cpu0.commit.committed_per_cycle::total   1936922225                       # Number of insts commited each cycle
system.cpu0.commit.fp_insts                        50                       # Number of committed floating point instructions.
system.cpu0.commit.function_calls            24112826                       # Number of function calls committed.
system.cpu0.commit.int_insts               1209817662                       # Number of committed integer instructions.
system.cpu0.commit.loads                    388697202                       # Number of loads committed
system.cpu0.commit.membars                    2104054                       # Number of memory barriers committed
system.cpu0.commit.op_class_0::No_OpClass      2104060      0.17%      0.17% # Class of committed instruction
system.cpu0.commit.op_class_0::IntAlu       699530289     55.89%     56.06% # Class of committed instruction
system.cpu0.commit.op_class_0::IntMult       11833132      0.95%     57.01% # Class of committed instruction
system.cpu0.commit.op_class_0::IntDiv         2099835      0.17%     57.17% # Class of committed instruction
system.cpu0.commit.op_class_0::FloatAdd             0      0.00%     57.17% # Class of committed instruction
system.cpu0.commit.op_class_0::FloatCmp             4      0.00%     57.17% # Class of committed instruction
system.cpu0.commit.op_class_0::FloatCvt            12      0.00%     57.17% # Class of committed instruction
system.cpu0.commit.op_class_0::FloatMult            0      0.00%     57.17% # Class of committed instruction
system.cpu0.commit.op_class_0::FloatMultAcc            0      0.00%     57.17% # Class of committed instruction
system.cpu0.commit.op_class_0::FloatDiv             2      0.00%     57.17% # Class of committed instruction
system.cpu0.commit.op_class_0::FloatMisc            4      0.00%     57.17% # Class of committed instruction
system.cpu0.commit.op_class_0::FloatSqrt            0      0.00%     57.17% # Class of committed instruction
system.cpu0.commit.op_class_0::SimdAdd              0      0.00%     57.17% # Class of committed instruction
system.cpu0.commit.op_class_0::SimdAddAcc            0      0.00%     57.17% # Class of committed instruction
system.cpu0.commit.op_class_0::SimdAlu              0      0.00%     57.17% # Class of committed instruction
system.cpu0.commit.op_class_0::SimdCmp              0      0.00%     57.17% # Class of committed instruction
system.cpu0.commit.op_class_0::SimdCvt              0      0.00%     57.17% # Class of committed instruction
system.cpu0.commit.op_class_0::SimdMisc             0      0.00%     57.17% # Class of committed instruction
system.cpu0.commit.op_class_0::SimdMult             0      0.00%     57.17% # Class of committed instruction
system.cpu0.commit.op_class_0::SimdMultAcc            0      0.00%     57.17% # Class of committed instruction
system.cpu0.commit.op_class_0::SimdShift            0      0.00%     57.17% # Class of committed instruction
system.cpu0.commit.op_class_0::SimdShiftAcc            0      0.00%     57.17% # Class of committed instruction
system.cpu0.commit.op_class_0::SimdDiv              0      0.00%     57.17% # Class of committed instruction
system.cpu0.commit.op_class_0::SimdSqrt             0      0.00%     57.17% # Class of committed instruction
system.cpu0.commit.op_class_0::SimdFloatAdd            0      0.00%     57.17% # Class of committed instruction
system.cpu0.commit.op_class_0::SimdFloatAlu            0      0.00%     57.17% # Class of committed instruction
system.cpu0.commit.op_class_0::SimdFloatCmp            0      0.00%     57.17% # Class of committed instruction
system.cpu0.commit.op_class_0::SimdFloatCvt            0      0.00%     57.17% # Class of committed instruction
system.cpu0.commit.op_class_0::SimdFloatDiv            0      0.00%     57.17% # Class of committed instruction
system.cpu0.commit.op_class_0::SimdFloatMisc            0      0.00%     57.17% # Class of committed instruction
system.cpu0.commit.op_class_0::SimdFloatMult            0      0.00%     57.17% # Class of committed instruction
system.cpu0.commit.op_class_0::SimdFloatMultAcc            0      0.00%     57.17% # Class of committed instruction
system.cpu0.commit.op_class_0::SimdFloatSqrt            0      0.00%     57.17% # Class of committed instruction
system.cpu0.commit.op_class_0::SimdReduceAdd            0      0.00%     57.17% # Class of committed instruction
system.cpu0.commit.op_class_0::SimdReduceAlu            0      0.00%     57.17% # Class of committed instruction
system.cpu0.commit.op_class_0::SimdReduceCmp            0      0.00%     57.17% # Class of committed instruction
system.cpu0.commit.op_class_0::SimdFloatReduceAdd            0      0.00%     57.17% # Class of committed instruction
system.cpu0.commit.op_class_0::SimdFloatReduceCmp            0      0.00%     57.17% # Class of committed instruction
system.cpu0.commit.op_class_0::SimdAes              0      0.00%     57.17% # Class of committed instruction
system.cpu0.commit.op_class_0::SimdAesMix            0      0.00%     57.17% # Class of committed instruction
system.cpu0.commit.op_class_0::SimdSha1Hash            0      0.00%     57.17% # Class of committed instruction
system.cpu0.commit.op_class_0::SimdSha1Hash2            0      0.00%     57.17% # Class of committed instruction
system.cpu0.commit.op_class_0::SimdSha256Hash            0      0.00%     57.17% # Class of committed instruction
system.cpu0.commit.op_class_0::SimdSha256Hash2            0      0.00%     57.17% # Class of committed instruction
system.cpu0.commit.op_class_0::SimdShaSigma2            0      0.00%     57.17% # Class of committed instruction
system.cpu0.commit.op_class_0::SimdShaSigma3            0      0.00%     57.17% # Class of committed instruction
system.cpu0.commit.op_class_0::SimdPredAlu            0      0.00%     57.17% # Class of committed instruction
system.cpu0.commit.op_class_0::MemRead      389747648     31.14%     88.31% # Class of committed instruction
system.cpu0.commit.op_class_0::MemWrite     146256323     11.69%    100.00% # Class of committed instruction
system.cpu0.commit.op_class_0::FloatMemRead            8      0.00%    100.00% # Class of committed instruction
system.cpu0.commit.op_class_0::FloatMemWrite           20      0.00%    100.00% # Class of committed instruction
system.cpu0.commit.op_class_0::IprAccess            0      0.00%    100.00% # Class of committed instruction
system.cpu0.commit.op_class_0::InstPrefetch            0      0.00%    100.00% # Class of committed instruction
system.cpu0.commit.op_class_0::total       1251571337                       # Class of committed instruction
system.cpu0.commit.refs                     536003999                       # Number of memory references committed
system.cpu0.commit.swp_count                        0                       # Number of s/w prefetches committed
system.cpu0.commit.vec_insts                        0                       # Number of committed Vector instructions.
system.cpu0.committedInsts                 1250517598                       # Number of Instructions Simulated
system.cpu0.committedOps                   1251571337                       # Number of Ops (including micro ops) Simulated
system.cpu0.cpi                              1.673340                       # CPI: Cycles Per Instruction
system.cpu0.cpi_total                        1.673340                       # CPI: Total CPI of All Threads
system.cpu0.decode.BlockedCycles            277855915                       # Number of cycles decode is blocked
system.cpu0.decode.BranchMispred              5822100                       # Number of times decode detected a branch misprediction
system.cpu0.decode.BranchResolved           166652673                       # Number of times decode resolved a branch
system.cpu0.decode.DecodedInsts            1316520946                       # Number of instructions handled by decode
system.cpu0.decode.IdleCycles               744258879                       # Number of cycles decode is idle
system.cpu0.decode.RunCycles                915052686                       # Number of cycles decode is running
system.cpu0.decode.SquashCycles               9114292                       # Number of cycles decode is squashing
system.cpu0.decode.SquashedInsts             13697977                       # Number of squashed instructions handled by decode
system.cpu0.decode.UnblockCycles              3760533                       # Number of cycles decode is unblocking
system.cpu0.dtb.accesses                            0                       # DTB accesses
system.cpu0.dtb.hits                                0                       # DTB hits
system.cpu0.dtb.misses                              0                       # DTB misses
system.cpu0.dtb.read_accesses                       0                       # DTB read accesses
system.cpu0.dtb.read_hits                           0                       # DTB read hits
system.cpu0.dtb.read_misses                         0                       # DTB read misses
system.cpu0.dtb.write_accesses                      0                       # DTB write accesses
system.cpu0.dtb.write_hits                          0                       # DTB write hits
system.cpu0.dtb.write_misses                        0                       # DTB write misses
system.cpu0.fetch.Branches                  328984081                       # Number of branches that fetch encountered
system.cpu0.fetch.CacheLines                232687017                       # Number of cache lines fetched
system.cpu0.fetch.Cycles                   1208470498                       # Number of cycles fetch has run and was not squashing or blocked
system.cpu0.fetch.IcacheSquashes              5770864                       # Number of outstanding Icache misses that were squashed
system.cpu0.fetch.IcacheWaitRetryStallCycles           75                       # Number of stall cycles due to full MSHR
system.cpu0.fetch.Insts                    1340143879                       # Number of instructions fetch has processed
system.cpu0.fetch.MiscStallCycles                  25                       # Number of cycles fetch has spent waiting on interrupts, or bad addresses, or out of MSHRs
system.cpu0.fetch.PendingTrapStallCycles          108                       # Number of stall cycles due to pending traps
system.cpu0.fetch.SquashCycles               29828278                       # Number of cycles fetch has spent squashing
system.cpu0.fetch.branchRate                 0.157217                       # Number of branch fetches per cycle
system.cpu0.fetch.icacheStallCycles         726657460                       # Number of cycles fetch is stalled on an Icache miss
system.cpu0.fetch.predictedBranches         189937119                       # Number of branches that fetch has predicted taken
system.cpu0.fetch.rate                       0.640438                       # Number of inst fetches per cycle
system.cpu0.fetch.rateDist::samples        1950042305                       # Number of instructions fetched each cycle (Total)
system.cpu0.fetch.rateDist::mean             0.687779                       # Number of instructions fetched each cycle (Total)
system.cpu0.fetch.rateDist::stdev            0.913087                       # Number of instructions fetched each cycle (Total)
system.cpu0.fetch.rateDist::underflows              0      0.00%      0.00% # Number of instructions fetched each cycle (Total)
system.cpu0.fetch.rateDist::0              1003525975     51.46%     51.46% # Number of instructions fetched each cycle (Total)
system.cpu0.fetch.rateDist::1               703526880     36.08%     87.54% # Number of instructions fetched each cycle (Total)
system.cpu0.fetch.rateDist::2               124137771      6.37%     93.91% # Number of instructions fetched each cycle (Total)
system.cpu0.fetch.rateDist::3                97425005      5.00%     98.90% # Number of instructions fetched each cycle (Total)
system.cpu0.fetch.rateDist::4                16596644      0.85%     99.75% # Number of instructions fetched each cycle (Total)
system.cpu0.fetch.rateDist::5                 2456239      0.13%     99.88% # Number of instructions fetched each cycle (Total)
system.cpu0.fetch.rateDist::6                  268558      0.01%     99.89% # Number of instructions fetched each cycle (Total)
system.cpu0.fetch.rateDist::7                     436      0.00%     99.89% # Number of instructions fetched each cycle (Total)
system.cpu0.fetch.rateDist::8                 2104797      0.11%    100.00% # Number of instructions fetched each cycle (Total)
system.cpu0.fetch.rateDist::overflows               0      0.00%    100.00% # Number of instructions fetched each cycle (Total)
system.cpu0.fetch.rateDist::min_value               0                       # Number of instructions fetched each cycle (Total)
system.cpu0.fetch.rateDist::max_value               8                       # Number of instructions fetched each cycle (Total)
system.cpu0.fetch.rateDist::total          1950042305                       # Number of instructions fetched each cycle (Total)
system.cpu0.fp_regfile_reads                       44                       # number of floating regfile reads
system.cpu0.fp_regfile_writes                      23                       # number of floating regfile writes
system.cpu0.idleCycles                      142499167                       # Total number of cycles that the CPU has spent unscheduled due to idling
system.cpu0.iew.branchMispredicts             9177622                       # Number of branch mispredicts detected at execute
system.cpu0.iew.exec_branches               319258717                       # Number of branches executed
system.cpu0.iew.exec_nop                            0                       # number of nop insts executed
system.cpu0.iew.exec_rate                    0.617591                       # Inst execution rate
system.cpu0.iew.exec_refs                   562170357                       # number of memory reference insts executed
system.cpu0.iew.exec_stores                 151647136                       # Number of stores executed
system.cpu0.iew.exec_swp                            0                       # number of swp insts executed
system.cpu0.iew.iewBlockCycles              219374679                       # Number of cycles IEW is blocking
system.cpu0.iew.iewDispLoadInsts            408571002                       # Number of dispatched load instructions
system.cpu0.iew.iewDispNonSpecInsts           1056730                       # Number of dispatched non-speculative instructions
system.cpu0.iew.iewDispSquashedInsts          5265048                       # Number of squashed instructions skipped by dispatch
system.cpu0.iew.iewDispStoreInsts           152197169                       # Number of dispatched store instructions
system.cpu0.iew.iewDispatchedInsts         1297613620                       # Number of instructions dispatched to IQ
system.cpu0.iew.iewExecLoadInsts            410523221                       # Number of load instructions executed
system.cpu0.iew.iewExecSquashedInsts          4935412                       # Number of squashed instructions skipped in execute
system.cpu0.iew.iewExecutedInsts           1292335090                       # Number of executed instructions
system.cpu0.iew.iewIQFullEvents               1043064                       # Number of times the IQ has become full, causing a stall
system.cpu0.iew.iewIdleCycles                       0                       # Number of cycles IEW is idle
system.cpu0.iew.iewLSQFullEvents              5917753                       # Number of times the LSQ has become full, causing a stall
system.cpu0.iew.iewSquashCycles               9114292                       # Number of cycles IEW is squashing
system.cpu0.iew.iewUnblockCycles              8230655                       # Number of cycles IEW is unblocking
system.cpu0.iew.lsq.thread0.blockedLoads            0                       # Number of blocked loads due to partial load-store forwarding
system.cpu0.iew.lsq.thread0.cacheBlocked       156108                       # Number of times an access to memory failed due to the cache being blocked
system.cpu0.iew.lsq.thread0.forwLoads        21493672                       # Number of loads that had data forwarded from stores
system.cpu0.iew.lsq.thread0.ignoredResponses        77318                       # Number of memory responses ignored because the instruction is squashed
system.cpu0.iew.lsq.thread0.invAddrLoads            0                       # Number of loads ignored due to an invalid address
system.cpu0.iew.lsq.thread0.invAddrSwpfs            0                       # Number of software prefetches ignored due to an invalid address
system.cpu0.iew.lsq.thread0.memOrderViolation         7123                       # Number of memory ordering violations
system.cpu0.iew.lsq.thread0.rescheduledLoads      4895011                       # Number of loads that were rescheduled
system.cpu0.iew.lsq.thread0.squashedLoads     19873800                       # Number of loads squashed
system.cpu0.iew.lsq.thread0.squashedStores      4890372                       # Number of stores squashed
system.cpu0.iew.memOrderViolationEvents          7123                       # Number of memory order violations
system.cpu0.iew.predictedNotTakenIncorrect       399320                       # Number of branches that were predicted not taken incorrectly
system.cpu0.iew.predictedTakenIncorrect       8778302                       # Number of branches that were predicted taken incorrectly
system.cpu0.iew.wb_consumers                591404062                       # num instructions consuming a value
system.cpu0.iew.wb_count                   1283938746                       # cumulative count of insts written-back
system.cpu0.iew.wb_fanout                    0.840627                       # average fanout of values written-back
system.cpu0.iew.wb_producers                497150455                       # num instructions producing a value
system.cpu0.iew.wb_rate                      0.613579                       # insts written-back per cycle
system.cpu0.iew.wb_sent                    1284011515                       # cumulative count of insts sent to commit
system.cpu0.int_regfile_reads              1586044057                       # number of integer regfile reads
system.cpu0.int_regfile_writes              823250115                       # number of integer regfile writes
system.cpu0.ipc                              0.597607                       # IPC: Instructions Per Cycle
system.cpu0.ipc_total                        0.597607                       # IPC: Total IPC of All Threads
system.cpu0.iq.FU_type_0::No_OpClass          2106107      0.16%      0.16% # Type of FU issued
system.cpu0.iq.FU_type_0::IntAlu            717087579     55.28%     55.44% # Type of FU issued
system.cpu0.iq.FU_type_0::IntMult            11842120      0.91%     56.35% # Type of FU issued
system.cpu0.iq.FU_type_0::IntDiv              2100416      0.16%     56.51% # Type of FU issued
system.cpu0.iq.FU_type_0::FloatAdd                  0      0.00%     56.51% # Type of FU issued
system.cpu0.iq.FU_type_0::FloatCmp                  4      0.00%     56.51% # Type of FU issued
system.cpu0.iq.FU_type_0::FloatCvt                 12      0.00%     56.51% # Type of FU issued
system.cpu0.iq.FU_type_0::FloatMult                 0      0.00%     56.51% # Type of FU issued
system.cpu0.iq.FU_type_0::FloatMultAcc              0      0.00%     56.51% # Type of FU issued
system.cpu0.iq.FU_type_0::FloatDiv                  2      0.00%     56.51% # Type of FU issued
system.cpu0.iq.FU_type_0::FloatMisc                 4      0.00%     56.51% # Type of FU issued
system.cpu0.iq.FU_type_0::FloatSqrt                 0      0.00%     56.51% # Type of FU issued
system.cpu0.iq.FU_type_0::SimdAdd                   0      0.00%     56.51% # Type of FU issued
system.cpu0.iq.FU_type_0::SimdAddAcc                0      0.00%     56.51% # Type of FU issued
system.cpu0.iq.FU_type_0::SimdAlu                   0      0.00%     56.51% # Type of FU issued
system.cpu0.iq.FU_type_0::SimdCmp                   0      0.00%     56.51% # Type of FU issued
system.cpu0.iq.FU_type_0::SimdCvt                   0      0.00%     56.51% # Type of FU issued
system.cpu0.iq.FU_type_0::SimdMisc                  0      0.00%     56.51% # Type of FU issued
system.cpu0.iq.FU_type_0::SimdMult                  0      0.00%     56.51% # Type of FU issued
system.cpu0.iq.FU_type_0::SimdMultAcc               0      0.00%     56.51% # Type of FU issued
system.cpu0.iq.FU_type_0::SimdShift                 0      0.00%     56.51% # Type of FU issued
system.cpu0.iq.FU_type_0::SimdShiftAcc              0      0.00%     56.51% # Type of FU issued
system.cpu0.iq.FU_type_0::SimdDiv                   0      0.00%     56.51% # Type of FU issued
system.cpu0.iq.FU_type_0::SimdSqrt                  0      0.00%     56.51% # Type of FU issued
system.cpu0.iq.FU_type_0::SimdFloatAdd              0      0.00%     56.51% # Type of FU issued
system.cpu0.iq.FU_type_0::SimdFloatAlu              0      0.00%     56.51% # Type of FU issued
system.cpu0.iq.FU_type_0::SimdFloatCmp              0      0.00%     56.51% # Type of FU issued
system.cpu0.iq.FU_type_0::SimdFloatCvt              0      0.00%     56.51% # Type of FU issued
system.cpu0.iq.FU_type_0::SimdFloatDiv              0      0.00%     56.51% # Type of FU issued
system.cpu0.iq.FU_type_0::SimdFloatMisc             0      0.00%     56.51% # Type of FU issued
system.cpu0.iq.FU_type_0::SimdFloatMult             0      0.00%     56.51% # Type of FU issued
system.cpu0.iq.FU_type_0::SimdFloatMultAcc            0      0.00%     56.51% # Type of FU issued
system.cpu0.iq.FU_type_0::SimdFloatSqrt             0      0.00%     56.51% # Type of FU issued
system.cpu0.iq.FU_type_0::SimdReduceAdd             0      0.00%     56.51% # Type of FU issued
system.cpu0.iq.FU_type_0::SimdReduceAlu             0      0.00%     56.51% # Type of FU issued
system.cpu0.iq.FU_type_0::SimdReduceCmp             0      0.00%     56.51% # Type of FU issued
system.cpu0.iq.FU_type_0::SimdFloatReduceAdd            0      0.00%     56.51% # Type of FU issued
system.cpu0.iq.FU_type_0::SimdFloatReduceCmp            0      0.00%     56.51% # Type of FU issued
system.cpu0.iq.FU_type_0::SimdAes                   0      0.00%     56.51% # Type of FU issued
system.cpu0.iq.FU_type_0::SimdAesMix                0      0.00%     56.51% # Type of FU issued
system.cpu0.iq.FU_type_0::SimdSha1Hash              0      0.00%     56.51% # Type of FU issued
system.cpu0.iq.FU_type_0::SimdSha1Hash2             0      0.00%     56.51% # Type of FU issued
system.cpu0.iq.FU_type_0::SimdSha256Hash            0      0.00%     56.51% # Type of FU issued
system.cpu0.iq.FU_type_0::SimdSha256Hash2            0      0.00%     56.51% # Type of FU issued
system.cpu0.iq.FU_type_0::SimdShaSigma2             0      0.00%     56.51% # Type of FU issued
system.cpu0.iq.FU_type_0::SimdShaSigma3             0      0.00%     56.51% # Type of FU issued
system.cpu0.iq.FU_type_0::SimdPredAlu               0      0.00%     56.51% # Type of FU issued
system.cpu0.iq.FU_type_0::MemRead           413376833     31.87%     88.38% # Type of FU issued
system.cpu0.iq.FU_type_0::MemWrite          150757396     11.62%    100.00% # Type of FU issued
system.cpu0.iq.FU_type_0::FloatMemRead              9      0.00%    100.00% # Type of FU issued
system.cpu0.iq.FU_type_0::FloatMemWrite            20      0.00%    100.00% # Type of FU issued
system.cpu0.iq.FU_type_0::IprAccess                 0      0.00%    100.00% # Type of FU issued
system.cpu0.iq.FU_type_0::InstPrefetch              0      0.00%    100.00% # Type of FU issued
system.cpu0.iq.FU_type_0::total            1297270502                       # Type of FU issued
system.cpu0.iq.fp_alu_accesses                     55                       # Number of floating point alu accesses
system.cpu0.iq.fp_inst_queue_reads                106                       # Number of floating instruction queue reads
system.cpu0.iq.fp_inst_queue_wakeup_accesses           51                       # Number of floating instruction queue wakeup accesses
system.cpu0.iq.fp_inst_queue_writes                52                       # Number of floating instruction queue writes
system.cpu0.iq.fu_busy_cnt                    1661182                       # FU busy when requested
system.cpu0.iq.fu_busy_rate                  0.001281                       # FU busy rate (busy events/executed inst)
system.cpu0.iq.fu_full::No_OpClass                  0      0.00%      0.00% # attempts to use FU when none available
system.cpu0.iq.fu_full::IntAlu                 318344     19.16%     19.16% # attempts to use FU when none available
system.cpu0.iq.fu_full::IntMult                    14      0.00%     19.16% # attempts to use FU when none available
system.cpu0.iq.fu_full::IntDiv                      0      0.00%     19.16% # attempts to use FU when none available
system.cpu0.iq.fu_full::FloatAdd                    0      0.00%     19.16% # attempts to use FU when none available
system.cpu0.iq.fu_full::FloatCmp                    0      0.00%     19.16% # attempts to use FU when none available
system.cpu0.iq.fu_full::FloatCvt                    0      0.00%     19.16% # attempts to use FU when none available
system.cpu0.iq.fu_full::FloatMult                   0      0.00%     19.16% # attempts to use FU when none available
system.cpu0.iq.fu_full::FloatMultAcc                0      0.00%     19.16% # attempts to use FU when none available
system.cpu0.iq.fu_full::FloatDiv                    0      0.00%     19.16% # attempts to use FU when none available
system.cpu0.iq.fu_full::FloatMisc                   0      0.00%     19.16% # attempts to use FU when none available
system.cpu0.iq.fu_full::FloatSqrt                   0      0.00%     19.16% # attempts to use FU when none available
system.cpu0.iq.fu_full::SimdAdd                     0      0.00%     19.16% # attempts to use FU when none available
system.cpu0.iq.fu_full::SimdAddAcc                  0      0.00%     19.16% # attempts to use FU when none available
system.cpu0.iq.fu_full::SimdAlu                     0      0.00%     19.16% # attempts to use FU when none available
system.cpu0.iq.fu_full::SimdCmp                     0      0.00%     19.16% # attempts to use FU when none available
system.cpu0.iq.fu_full::SimdCvt                     0      0.00%     19.16% # attempts to use FU when none available
system.cpu0.iq.fu_full::SimdMisc                    0      0.00%     19.16% # attempts to use FU when none available
system.cpu0.iq.fu_full::SimdMult                    0      0.00%     19.16% # attempts to use FU when none available
system.cpu0.iq.fu_full::SimdMultAcc                 0      0.00%     19.16% # attempts to use FU when none available
system.cpu0.iq.fu_full::SimdShift                   0      0.00%     19.16% # attempts to use FU when none available
system.cpu0.iq.fu_full::SimdShiftAcc                0      0.00%     19.16% # attempts to use FU when none available
system.cpu0.iq.fu_full::SimdDiv                     0      0.00%     19.16% # attempts to use FU when none available
system.cpu0.iq.fu_full::SimdSqrt                    0      0.00%     19.16% # attempts to use FU when none available
system.cpu0.iq.fu_full::SimdFloatAdd                0      0.00%     19.16% # attempts to use FU when none available
system.cpu0.iq.fu_full::SimdFloatAlu                0      0.00%     19.16% # attempts to use FU when none available
system.cpu0.iq.fu_full::SimdFloatCmp                0      0.00%     19.16% # attempts to use FU when none available
system.cpu0.iq.fu_full::SimdFloatCvt                0      0.00%     19.16% # attempts to use FU when none available
system.cpu0.iq.fu_full::SimdFloatDiv                0      0.00%     19.16% # attempts to use FU when none available
system.cpu0.iq.fu_full::SimdFloatMisc               0      0.00%     19.16% # attempts to use FU when none available
system.cpu0.iq.fu_full::SimdFloatMult               0      0.00%     19.16% # attempts to use FU when none available
system.cpu0.iq.fu_full::SimdFloatMultAcc            0      0.00%     19.16% # attempts to use FU when none available
system.cpu0.iq.fu_full::SimdFloatSqrt               0      0.00%     19.16% # attempts to use FU when none available
system.cpu0.iq.fu_full::SimdReduceAdd               0      0.00%     19.16% # attempts to use FU when none available
system.cpu0.iq.fu_full::SimdReduceAlu               0      0.00%     19.16% # attempts to use FU when none available
system.cpu0.iq.fu_full::SimdReduceCmp               0      0.00%     19.16% # attempts to use FU when none available
system.cpu0.iq.fu_full::SimdFloatReduceAdd            0      0.00%     19.16% # attempts to use FU when none available
system.cpu0.iq.fu_full::SimdFloatReduceCmp            0      0.00%     19.16% # attempts to use FU when none available
system.cpu0.iq.fu_full::SimdAes                     0      0.00%     19.16% # attempts to use FU when none available
system.cpu0.iq.fu_full::SimdAesMix                  0      0.00%     19.16% # attempts to use FU when none available
system.cpu0.iq.fu_full::SimdSha1Hash                0      0.00%     19.16% # attempts to use FU when none available
system.cpu0.iq.fu_full::SimdSha1Hash2               0      0.00%     19.16% # attempts to use FU when none available
system.cpu0.iq.fu_full::SimdSha256Hash              0      0.00%     19.16% # attempts to use FU when none available
system.cpu0.iq.fu_full::SimdSha256Hash2             0      0.00%     19.16% # attempts to use FU when none available
system.cpu0.iq.fu_full::SimdShaSigma2               0      0.00%     19.16% # attempts to use FU when none available
system.cpu0.iq.fu_full::SimdShaSigma3               0      0.00%     19.16% # attempts to use FU when none available
system.cpu0.iq.fu_full::SimdPredAlu                 0      0.00%     19.16% # attempts to use FU when none available
system.cpu0.iq.fu_full::MemRead               1036784     62.41%     81.58% # attempts to use FU when none available
system.cpu0.iq.fu_full::MemWrite               306036     18.42%    100.00% # attempts to use FU when none available
system.cpu0.iq.fu_full::FloatMemRead                0      0.00%    100.00% # attempts to use FU when none available
system.cpu0.iq.fu_full::FloatMemWrite               4      0.00%    100.00% # attempts to use FU when none available
system.cpu0.iq.fu_full::IprAccess                   0      0.00%    100.00% # attempts to use FU when none available
system.cpu0.iq.fu_full::InstPrefetch                0      0.00%    100.00% # attempts to use FU when none available
system.cpu0.iq.int_alu_accesses            1296825522                       # Number of integer alu accesses
system.cpu0.iq.int_inst_queue_reads        4546369707                       # Number of integer instruction queue reads
system.cpu0.iq.int_inst_queue_wakeup_accesses   1283938695                       # Number of integer instruction queue wakeup accesses
system.cpu0.iq.int_inst_queue_writes       1343662725                       # Number of integer instruction queue writes
system.cpu0.iq.iqInstsAdded                1294452697                       # Number of instructions added to the IQ (excludes non-spec)
system.cpu0.iq.iqInstsIssued               1297270502                       # Number of instructions issued
system.cpu0.iq.iqNonSpecInstsAdded            3160923                       # Number of non-speculative instructions added to the IQ
system.cpu0.iq.iqSquashedInstsExamined       46042280                       # Number of squashed instructions iterated over during squash; mainly for profiling
system.cpu0.iq.iqSquashedInstsIssued           125322                       # Number of squashed instructions issued
system.cpu0.iq.iqSquashedNonSpecRemoved           326                       # Number of squashed non-spec instructions that were removed
system.cpu0.iq.iqSquashedOperandsExamined     13393039                       # Number of squashed operands that are examined and possibly removed from graph
system.cpu0.iq.issued_per_cycle::samples   1950042305                       # Number of insts issued each cycle
system.cpu0.iq.issued_per_cycle::mean        0.665252                       # Number of insts issued each cycle
system.cpu0.iq.issued_per_cycle::stdev       0.866900                       # Number of insts issued each cycle
system.cpu0.iq.issued_per_cycle::underflows            0      0.00%      0.00% # Number of insts issued each cycle
system.cpu0.iq.issued_per_cycle::0         1047273728     53.71%     53.71% # Number of insts issued each cycle
system.cpu0.iq.issued_per_cycle::1          608251877     31.19%     84.90% # Number of insts issued each cycle
system.cpu0.iq.issued_per_cycle::2          209043132     10.72%     95.62% # Number of insts issued each cycle
system.cpu0.iq.issued_per_cycle::3           75066871      3.85%     99.47% # Number of insts issued each cycle
system.cpu0.iq.issued_per_cycle::4            8135451      0.42%     99.88% # Number of insts issued each cycle
system.cpu0.iq.issued_per_cycle::5             962474      0.05%     99.93% # Number of insts issued each cycle
system.cpu0.iq.issued_per_cycle::6             936636      0.05%     99.98% # Number of insts issued each cycle
system.cpu0.iq.issued_per_cycle::7             219330      0.01%     99.99% # Number of insts issued each cycle
system.cpu0.iq.issued_per_cycle::8             152806      0.01%    100.00% # Number of insts issued each cycle
system.cpu0.iq.issued_per_cycle::overflows            0      0.00%    100.00% # Number of insts issued each cycle
system.cpu0.iq.issued_per_cycle::min_value            0                       # Number of insts issued each cycle
system.cpu0.iq.issued_per_cycle::max_value            8                       # Number of insts issued each cycle
system.cpu0.iq.issued_per_cycle::total     1950042305                       # Number of insts issued each cycle
system.cpu0.iq.rate                          0.619950                       # Inst issue rate
system.cpu0.iq.vec_alu_accesses                     0                       # Number of vector alu accesses
system.cpu0.iq.vec_inst_queue_reads                 0                       # Number of vector instruction queue reads
system.cpu0.iq.vec_inst_queue_wakeup_accesses            0                       # Number of vector instruction queue wakeup accesses
system.cpu0.iq.vec_inst_queue_writes                0                       # Number of vector instruction queue writes
system.cpu0.itb.accesses                            0                       # DTB accesses
system.cpu0.itb.hits                                0                       # DTB hits
system.cpu0.itb.misses                              0                       # DTB misses
system.cpu0.itb.read_accesses                       0                       # DTB read accesses
system.cpu0.itb.read_hits                           0                       # DTB read hits
system.cpu0.itb.read_misses                         0                       # DTB read misses
system.cpu0.itb.write_accesses                      0                       # DTB write accesses
system.cpu0.itb.write_hits                          0                       # DTB write hits
system.cpu0.itb.write_misses                        0                       # DTB write misses
system.cpu0.memDep0.conflictingLoads         11163105                       # Number of conflicting loads.
system.cpu0.memDep0.conflictingStores         2643147                       # Number of conflicting stores.
system.cpu0.memDep0.insertedLoads           408571002                       # Number of loads inserted to the mem dependence unit.
system.cpu0.memDep0.insertedStores          152197169                       # Number of stores inserted to the mem dependence unit.
system.cpu0.misc_regfile_reads                   2062                       # number of misc regfile reads
system.cpu0.misc_regfile_writes                    22                       # number of misc regfile writes
system.cpu0.numCycles                      2092541472                       # number of cpu cycles simulated
system.cpu0.numWorkItemsCompleted                   0                       # number of work items this cpu completed
system.cpu0.numWorkItemsStarted                     0                       # number of work items this cpu started
system.cpu0.quiesceCycles                     9140727                       # Total number of cycles that CPU has spent quiesced or waiting for an interrupt
system.cpu0.rename.BlockCycles              235647680                       # Number of cycles rename is blocking
system.cpu0.rename.CommittedMaps            800543170                       # Number of HB maps that are committed
system.cpu0.rename.IQFullEvents               7406234                       # Number of times rename has blocked due to IQ full
system.cpu0.rename.IdleCycles               755019934                       # Number of cycles rename is idle
system.cpu0.rename.LQFullEvents              11868720                       # Number of times rename has blocked due to LQ full
system.cpu0.rename.ROBFullEvents                14085                       # Number of times rename has blocked due to ROB full
system.cpu0.rename.RenameLookups           1609766433                       # Number of register rename lookups that rename has made
system.cpu0.rename.RenamedInsts            1311838773                       # Number of instructions processed by rename
system.cpu0.rename.RenamedOperands          846475084                       # Number of destination operands rename has renamed
system.cpu0.rename.RunCycles                907304474                       # Number of cycles rename is running
system.cpu0.rename.SQFullEvents              23280308                       # Number of times rename has blocked due to SQ full
system.cpu0.rename.SquashCycles               9114292                       # Number of cycles rename is squashing
system.cpu0.rename.UnblockCycles             42784430                       # Number of cycles rename is unblocking
system.cpu0.rename.UndoneMaps                45931910                       # Number of HB maps that are undone due to squashing
system.cpu0.rename.fp_rename_lookups               44                       # Number of floating rename lookups
system.cpu0.rename.int_rename_lookups      1609766389                       # Number of integer rename lookups
system.cpu0.rename.serializeStallCycles        171495                       # count of cycles rename stalled for serializing inst
system.cpu0.rename.serializingInsts              6198                       # count of serializing insts renamed
system.cpu0.rename.skidInsts                 16720117                       # count of insts added to the skid buffer
system.cpu0.rename.tempSerializingInsts          6182                       # count of temporary serializing insts renamed
system.cpu0.rob.rob_reads                  3201492160                       # The number of ROB reads
system.cpu0.rob.rob_writes                 2608429100                       # The number of ROB writes
system.cpu0.timesIdled                       22310335                       # Number of times that the entire CPU went into an idle state and unscheduled itself
system.cpu0.workload.numSyscalls                 2029                       # Number of system calls
system.cpu1.branchPred.BTBCorrect                   0                       # Number of correct BTB predictions (this stat may not work properly.
system.cpu1.branchPred.BTBHitPct            85.722807                       # BTB Hit Percentage
system.cpu1.branchPred.BTBHits               12328949                       # Number of BTB hits
system.cpu1.branchPred.BTBLookups            14382344                       # Number of BTB lookups
system.cpu1.branchPred.RASInCorrect                 0                       # Number of incorrect RAS predictions.
system.cpu1.branchPred.condIncorrect          1800234                       # Number of conditional branches incorrect
system.cpu1.branchPred.condPredicted         18011957                       # Number of conditional branches predicted
system.cpu1.branchPred.indirectHits            670108                       # Number of indirect target hits.
system.cpu1.branchPred.indirectLookups         682714                       # Number of indirect predictor lookups.
system.cpu1.branchPred.indirectMisses           12606                       # Number of indirect misses.
system.cpu1.branchPred.lookups               21039826                       # Number of BP lookups
system.cpu1.branchPred.usedRAS                      0                       # Number of times the RAS was used to get a target.
system.cpu1.branchPredindirectMispredicted        41908                       # Number of mispredicted indirect branches.
system.cpu1.commit.amos                       1050235                       # Number of atomic instructions committed
system.cpu1.commit.branchMispredicts          1330225                       # The number of times a branch was mispredicted
system.cpu1.commit.branches                  16227445                       # Number of branches committed
system.cpu1.commit.bw_lim_events              1995869                       # number cycles where commit BW limit reached
system.cpu1.commit.commitNonSpecStalls        3151415                       # The number of times commit has been forced to stall to communicate backwards
system.cpu1.commit.commitSquashedInsts       11034553                       # The number of squashed insts skipped by commit
system.cpu1.commit.committedInsts            67672170                       # Number of instructions committed
system.cpu1.commit.committedOps              68722608                       # Number of ops (including micro ops) committed
system.cpu1.commit.committed_per_cycle::samples    302651632                       # Number of insts commited each cycle
system.cpu1.commit.committed_per_cycle::mean     0.227068                       # Number of insts commited each cycle
system.cpu1.commit.committed_per_cycle::stdev     0.942307                       # Number of insts commited each cycle
system.cpu1.commit.committed_per_cycle::underflows            0      0.00%      0.00% # Number of insts commited each cycle
system.cpu1.commit.committed_per_cycle::0    273879739     90.49%     90.49% # Number of insts commited each cycle
system.cpu1.commit.committed_per_cycle::1     14475057      4.78%     95.28% # Number of insts commited each cycle
system.cpu1.commit.committed_per_cycle::2      5233217      1.73%     97.01% # Number of insts commited each cycle
system.cpu1.commit.committed_per_cycle::3      4060174      1.34%     98.35% # Number of insts commited each cycle
system.cpu1.commit.committed_per_cycle::4      1121641      0.37%     98.72% # Number of insts commited each cycle
system.cpu1.commit.committed_per_cycle::5       504000      0.17%     98.88% # Number of insts commited each cycle
system.cpu1.commit.committed_per_cycle::6      1046466      0.35%     99.23% # Number of insts commited each cycle
system.cpu1.commit.committed_per_cycle::7       335469      0.11%     99.34% # Number of insts commited each cycle
system.cpu1.commit.committed_per_cycle::8      1995869      0.66%    100.00% # Number of insts commited each cycle
system.cpu1.commit.committed_per_cycle::overflows            0      0.00%    100.00% # Number of insts commited each cycle
system.cpu1.commit.committed_per_cycle::min_value            0                       # Number of insts commited each cycle
system.cpu1.commit.committed_per_cycle::max_value            8                       # Number of insts commited each cycle
system.cpu1.commit.committed_per_cycle::total    302651632                       # Number of insts commited each cycle
system.cpu1.commit.fp_insts                        12                       # Number of committed floating point instructions.
system.cpu1.commit.function_calls             1074645                       # Number of function calls committed.
system.cpu1.commit.int_insts                 65707194                       # Number of committed integer instructions.
system.cpu1.commit.loads                     16750812                       # Number of loads committed
system.cpu1.commit.membars                    2100525                       # Number of memory barriers committed
system.cpu1.commit.op_class_0::No_OpClass      2100525      3.06%      3.06% # Class of committed instruction
system.cpu1.commit.op_class_0::IntAlu        43597343     63.44%     66.50% # Class of committed instruction
system.cpu1.commit.op_class_0::IntMult             44      0.00%     66.50% # Class of committed instruction
system.cpu1.commit.op_class_0::IntDiv              88      0.00%     66.50% # Class of committed instruction
system.cpu1.commit.op_class_0::FloatAdd             0      0.00%     66.50% # Class of committed instruction
system.cpu1.commit.op_class_0::FloatCmp             0      0.00%     66.50% # Class of committed instruction
system.cpu1.commit.op_class_0::FloatCvt             0      0.00%     66.50% # Class of committed instruction
system.cpu1.commit.op_class_0::FloatMult            0      0.00%     66.50% # Class of committed instruction
system.cpu1.commit.op_class_0::FloatMultAcc            0      0.00%     66.50% # Class of committed instruction
system.cpu1.commit.op_class_0::FloatDiv             0      0.00%     66.50% # Class of committed instruction
system.cpu1.commit.op_class_0::FloatMisc            0      0.00%     66.50% # Class of committed instruction
system.cpu1.commit.op_class_0::FloatSqrt            0      0.00%     66.50% # Class of committed instruction
system.cpu1.commit.op_class_0::SimdAdd              0      0.00%     66.50% # Class of committed instruction
system.cpu1.commit.op_class_0::SimdAddAcc            0      0.00%     66.50% # Class of committed instruction
system.cpu1.commit.op_class_0::SimdAlu              0      0.00%     66.50% # Class of committed instruction
system.cpu1.commit.op_class_0::SimdCmp              0      0.00%     66.50% # Class of committed instruction
system.cpu1.commit.op_class_0::SimdCvt              0      0.00%     66.50% # Class of committed instruction
system.cpu1.commit.op_class_0::SimdMisc             0      0.00%     66.50% # Class of committed instruction
system.cpu1.commit.op_class_0::SimdMult             0      0.00%     66.50% # Class of committed instruction
system.cpu1.commit.op_class_0::SimdMultAcc            0      0.00%     66.50% # Class of committed instruction
system.cpu1.commit.op_class_0::SimdShift            0      0.00%     66.50% # Class of committed instruction
system.cpu1.commit.op_class_0::SimdShiftAcc            0      0.00%     66.50% # Class of committed instruction
system.cpu1.commit.op_class_0::SimdDiv              0      0.00%     66.50% # Class of committed instruction
system.cpu1.commit.op_class_0::SimdSqrt             0      0.00%     66.50% # Class of committed instruction
system.cpu1.commit.op_class_0::SimdFloatAdd            0      0.00%     66.50% # Class of committed instruction
system.cpu1.commit.op_class_0::SimdFloatAlu            0      0.00%     66.50% # Class of committed instruction
system.cpu1.commit.op_class_0::SimdFloatCmp            0      0.00%     66.50% # Class of committed instruction
system.cpu1.commit.op_class_0::SimdFloatCvt            0      0.00%     66.50% # Class of committed instruction
system.cpu1.commit.op_class_0::SimdFloatDiv            0      0.00%     66.50% # Class of committed instruction
system.cpu1.commit.op_class_0::SimdFloatMisc            0      0.00%     66.50% # Class of committed instruction
system.cpu1.commit.op_class_0::SimdFloatMult            0      0.00%     66.50% # Class of committed instruction
system.cpu1.commit.op_class_0::SimdFloatMultAcc            0      0.00%     66.50% # Class of committed instruction
system.cpu1.commit.op_class_0::SimdFloatSqrt            0      0.00%     66.50% # Class of committed instruction
system.cpu1.commit.op_class_0::SimdReduceAdd            0      0.00%     66.50% # Class of committed instruction
system.cpu1.commit.op_class_0::SimdReduceAlu            0      0.00%     66.50% # Class of committed instruction
system.cpu1.commit.op_class_0::SimdReduceCmp            0      0.00%     66.50% # Class of committed instruction
system.cpu1.commit.op_class_0::SimdFloatReduceAdd            0      0.00%     66.50% # Class of committed instruction
system.cpu1.commit.op_class_0::SimdFloatReduceCmp            0      0.00%     66.50% # Class of committed instruction
system.cpu1.commit.op_class_0::SimdAes              0      0.00%     66.50% # Class of committed instruction
system.cpu1.commit.op_class_0::SimdAesMix            0      0.00%     66.50% # Class of committed instruction
system.cpu1.commit.op_class_0::SimdSha1Hash            0      0.00%     66.50% # Class of committed instruction
system.cpu1.commit.op_class_0::SimdSha1Hash2            0      0.00%     66.50% # Class of committed instruction
system.cpu1.commit.op_class_0::SimdSha256Hash            0      0.00%     66.50% # Class of committed instruction
system.cpu1.commit.op_class_0::SimdSha256Hash2            0      0.00%     66.50% # Class of committed instruction
system.cpu1.commit.op_class_0::SimdShaSigma2            0      0.00%     66.50% # Class of committed instruction
system.cpu1.commit.op_class_0::SimdShaSigma3            0      0.00%     66.50% # Class of committed instruction
system.cpu1.commit.op_class_0::SimdPredAlu            0      0.00%     66.50% # Class of committed instruction
system.cpu1.commit.op_class_0::MemRead       17801047     25.90%     92.40% # Class of committed instruction
system.cpu1.commit.op_class_0::MemWrite       5223549      7.60%    100.00% # Class of committed instruction
system.cpu1.commit.op_class_0::FloatMemRead            0      0.00%    100.00% # Class of committed instruction
system.cpu1.commit.op_class_0::FloatMemWrite           12      0.00%    100.00% # Class of committed instruction
system.cpu1.commit.op_class_0::IprAccess            0      0.00%    100.00% # Class of committed instruction
system.cpu1.commit.op_class_0::InstPrefetch            0      0.00%    100.00% # Class of committed instruction
system.cpu1.commit.op_class_0::total         68722608                       # Class of committed instruction
system.cpu1.commit.refs                      23024608                       # Number of memory references committed
system.cpu1.commit.swp_count                        0                       # Number of s/w prefetches committed
system.cpu1.commit.vec_insts                        0                       # Number of committed Vector instructions.
system.cpu1.committedInsts                   67672170                       # Number of Instructions Simulated
system.cpu1.committedOps                     68722608                       # Number of Ops (including micro ops) Simulated
system.cpu1.cpi                              4.517190                       # CPI: Cycles Per Instruction
system.cpu1.cpi_total                        4.517190                       # CPI: Total CPI of All Threads
system.cpu1.decode.BlockedCycles            243885973                       # Number of cycles decode is blocked
system.cpu1.decode.BranchMispred               498935                       # Number of times decode detected a branch misprediction
system.cpu1.decode.BranchResolved            11656561                       # Number of times decode resolved a branch
system.cpu1.decode.DecodedInsts              84299032                       # Number of instructions handled by decode
system.cpu1.decode.IdleCycles                16661236                       # Number of cycles decode is idle
system.cpu1.decode.RunCycles                 40380773                       # Number of cycles decode is running
system.cpu1.decode.SquashCycles               1331687                       # Number of cycles decode is squashing
system.cpu1.decode.SquashedInsts              1232620                       # Number of squashed instructions handled by decode
system.cpu1.decode.UnblockCycles              2675320                       # Number of cycles decode is unblocking
system.cpu1.dtb.accesses                            0                       # DTB accesses
system.cpu1.dtb.hits                                0                       # DTB hits
system.cpu1.dtb.misses                              0                       # DTB misses
system.cpu1.dtb.read_accesses                       0                       # DTB read accesses
system.cpu1.dtb.read_hits                           0                       # DTB read hits
system.cpu1.dtb.read_misses                         0                       # DTB read misses
system.cpu1.dtb.write_accesses                      0                       # DTB write accesses
system.cpu1.dtb.write_hits                          0                       # DTB write hits
system.cpu1.dtb.write_misses                        0                       # DTB write misses
system.cpu1.fetch.Branches                   21039826                       # Number of branches that fetch encountered
system.cpu1.fetch.CacheLines                 14684210                       # Number of cache lines fetched
system.cpu1.fetch.Cycles                    286325993                       # Number of cycles fetch has run and was not squashing or blocked
system.cpu1.fetch.IcacheSquashes               326999                       # Number of outstanding Icache misses that were squashed
system.cpu1.fetch.IcacheWaitRetryStallCycles            9                       # Number of stall cycles due to full MSHR
system.cpu1.fetch.Insts                      88306940                       # Number of instructions fetch has processed
system.cpu1.fetch.MiscStallCycles                   2                       # Number of cycles fetch has spent waiting on interrupts, or bad addresses, or out of MSHRs
system.cpu1.fetch.SquashCycles                3603392                       # Number of cycles fetch has spent squashing
system.cpu1.fetch.branchRate                 0.068828                       # Number of branch fetches per cycle
system.cpu1.fetch.icacheStallCycles          16807289                       # Number of cycles fetch is stalled on an Icache miss
system.cpu1.fetch.predictedBranches          12999057                       # Number of branches that fetch has predicted taken
system.cpu1.fetch.rate                       0.288879                       # Number of inst fetches per cycle
system.cpu1.fetch.rateDist::samples         304934989                       # Number of instructions fetched each cycle (Total)
system.cpu1.fetch.rateDist::mean             0.293041                       # Number of instructions fetched each cycle (Total)
system.cpu1.fetch.rateDist::stdev            0.715838                       # Number of instructions fetched each cycle (Total)
system.cpu1.fetch.rateDist::underflows              0      0.00%      0.00% # Number of instructions fetched each cycle (Total)
system.cpu1.fetch.rateDist::0               247400846     81.13%     81.13% # Number of instructions fetched each cycle (Total)
system.cpu1.fetch.rateDist::1                36924327     12.11%     93.24% # Number of instructions fetched each cycle (Total)
system.cpu1.fetch.rateDist::2                11838259      3.88%     97.12% # Number of instructions fetched each cycle (Total)
system.cpu1.fetch.rateDist::3                 7121980      2.34%     99.46% # Number of instructions fetched each cycle (Total)
system.cpu1.fetch.rateDist::4                 1121019      0.37%     99.83% # Number of instructions fetched each cycle (Total)
system.cpu1.fetch.rateDist::5                  264973      0.09%     99.91% # Number of instructions fetched each cycle (Total)
system.cpu1.fetch.rateDist::6                  262975      0.09%    100.00% # Number of instructions fetched each cycle (Total)
system.cpu1.fetch.rateDist::7                      15      0.00%    100.00% # Number of instructions fetched each cycle (Total)
system.cpu1.fetch.rateDist::8                     595      0.00%    100.00% # Number of instructions fetched each cycle (Total)
system.cpu1.fetch.rateDist::overflows               0      0.00%    100.00% # Number of instructions fetched each cycle (Total)
system.cpu1.fetch.rateDist::min_value               0                       # Number of instructions fetched each cycle (Total)
system.cpu1.fetch.rateDist::max_value               8                       # Number of instructions fetched each cycle (Total)
system.cpu1.fetch.rateDist::total           304934989                       # Number of instructions fetched each cycle (Total)
system.cpu1.fp_regfile_reads                       12                       # number of floating regfile reads
system.cpu1.idleCycles                         753029                       # Total number of cycles that the CPU has spent unscheduled due to idling
system.cpu1.iew.branchMispredicts             1395136                       # Number of branch mispredicts detected at execute
system.cpu1.iew.exec_branches                17807746                       # Number of branches executed
system.cpu1.iew.exec_nop                            0                       # number of nop insts executed
system.cpu1.iew.exec_rate                    0.249543                       # Inst execution rate
system.cpu1.iew.exec_refs                    25870823                       # number of memory reference insts executed
system.cpu1.iew.exec_stores                   6632362                       # Number of stores executed
system.cpu1.iew.exec_swp                            0                       # number of swp insts executed
system.cpu1.iew.iewBlockCycles              205483241                       # Number of cycles IEW is blocking
system.cpu1.iew.iewDispLoadInsts             19711050                       # Number of dispatched load instructions
system.cpu1.iew.iewDispNonSpecInsts           1051123                       # Number of dispatched non-speculative instructions
system.cpu1.iew.iewDispSquashedInsts          1379204                       # Number of squashed instructions skipped by dispatch
system.cpu1.iew.iewDispStoreInsts             6981531                       # Number of dispatched store instructions
system.cpu1.iew.iewDispatchedInsts           79732467                       # Number of instructions dispatched to IQ
system.cpu1.iew.iewExecLoadInsts             19238461                       # Number of load instructions executed
system.cpu1.iew.iewExecSquashedInsts          1316972                       # Number of squashed instructions skipped in execute
system.cpu1.iew.iewExecutedInsts             76282376                       # Number of executed instructions
system.cpu1.iew.iewIQFullEvents                848223                       # Number of times the IQ has become full, causing a stall
system.cpu1.iew.iewIdleCycles                       0                       # Number of cycles IEW is idle
system.cpu1.iew.iewLSQFullEvents              3954751                       # Number of times the LSQ has become full, causing a stall
system.cpu1.iew.iewSquashCycles               1331687                       # Number of cycles IEW is squashing
system.cpu1.iew.iewUnblockCycles              6139975                       # Number of cycles IEW is unblocking
system.cpu1.iew.lsq.thread0.blockedLoads            0                       # Number of blocked loads due to partial load-store forwarding
system.cpu1.iew.lsq.thread0.cacheBlocked        66293                       # Number of times an access to memory failed due to the cache being blocked
system.cpu1.iew.lsq.thread0.forwLoads          723494                       # Number of loads that had data forwarded from stores
system.cpu1.iew.lsq.thread0.ignoredResponses        32844                       # Number of memory responses ignored because the instruction is squashed
system.cpu1.iew.lsq.thread0.invAddrLoads            0                       # Number of loads ignored due to an invalid address
system.cpu1.iew.lsq.thread0.invAddrSwpfs            0                       # Number of software prefetches ignored due to an invalid address
system.cpu1.iew.lsq.thread0.memOrderViolation         1982                       # Number of memory ordering violations
system.cpu1.iew.lsq.thread0.rescheduledLoads        10684                       # Number of loads that were rescheduled
system.cpu1.iew.lsq.thread0.squashedLoads      2960238                       # Number of loads squashed
system.cpu1.iew.lsq.thread0.squashedStores       707735                       # Number of stores squashed
system.cpu1.iew.memOrderViolationEvents          1982                       # Number of memory order violations
system.cpu1.iew.predictedNotTakenIncorrect       405085                       # Number of branches that were predicted not taken incorrectly
system.cpu1.iew.predictedTakenIncorrect        990051                       # Number of branches that were predicted taken incorrectly
system.cpu1.iew.wb_consumers                 43628334                       # num instructions consuming a value
system.cpu1.iew.wb_count                     75205093                       # cumulative count of insts written-back
system.cpu1.iew.wb_fanout                    0.823590                       # average fanout of values written-back
system.cpu1.iew.wb_producers                 35931865                       # num instructions producing a value
system.cpu1.iew.wb_rate                      0.246019                       # insts written-back per cycle
system.cpu1.iew.wb_sent                      75255785                       # cumulative count of insts sent to commit
system.cpu1.int_regfile_reads                96921087                       # number of integer regfile reads
system.cpu1.int_regfile_writes               50386696                       # number of integer regfile writes
system.cpu1.ipc                              0.221377                       # IPC: Instructions Per Cycle
system.cpu1.ipc_total                        0.221377                       # IPC: Total IPC of All Threads
system.cpu1.iq.FU_type_0::No_OpClass          2100752      2.71%      2.71% # Type of FU issued
system.cpu1.iq.FU_type_0::IntAlu             49216891     63.42%     66.13% # Type of FU issued
system.cpu1.iq.FU_type_0::IntMult                  53      0.00%     66.13% # Type of FU issued
system.cpu1.iq.FU_type_0::IntDiv                   90      0.00%     66.13% # Type of FU issued
system.cpu1.iq.FU_type_0::FloatAdd                  0      0.00%     66.13% # Type of FU issued
system.cpu1.iq.FU_type_0::FloatCmp                  0      0.00%     66.13% # Type of FU issued
system.cpu1.iq.FU_type_0::FloatCvt                  0      0.00%     66.13% # Type of FU issued
system.cpu1.iq.FU_type_0::FloatMult                 0      0.00%     66.13% # Type of FU issued
system.cpu1.iq.FU_type_0::FloatMultAcc              0      0.00%     66.13% # Type of FU issued
system.cpu1.iq.FU_type_0::FloatDiv                  0      0.00%     66.13% # Type of FU issued
system.cpu1.iq.FU_type_0::FloatMisc                 0      0.00%     66.13% # Type of FU issued
system.cpu1.iq.FU_type_0::FloatSqrt                 0      0.00%     66.13% # Type of FU issued
system.cpu1.iq.FU_type_0::SimdAdd                   0      0.00%     66.13% # Type of FU issued
system.cpu1.iq.FU_type_0::SimdAddAcc                0      0.00%     66.13% # Type of FU issued
system.cpu1.iq.FU_type_0::SimdAlu                   0      0.00%     66.13% # Type of FU issued
system.cpu1.iq.FU_type_0::SimdCmp                   0      0.00%     66.13% # Type of FU issued
system.cpu1.iq.FU_type_0::SimdCvt                   0      0.00%     66.13% # Type of FU issued
system.cpu1.iq.FU_type_0::SimdMisc                  0      0.00%     66.13% # Type of FU issued
system.cpu1.iq.FU_type_0::SimdMult                  0      0.00%     66.13% # Type of FU issued
system.cpu1.iq.FU_type_0::SimdMultAcc               0      0.00%     66.13% # Type of FU issued
system.cpu1.iq.FU_type_0::SimdShift                 0      0.00%     66.13% # Type of FU issued
system.cpu1.iq.FU_type_0::SimdShiftAcc              0      0.00%     66.13% # Type of FU issued
system.cpu1.iq.FU_type_0::SimdDiv                   0      0.00%     66.13% # Type of FU issued
system.cpu1.iq.FU_type_0::SimdSqrt                  0      0.00%     66.13% # Type of FU issued
system.cpu1.iq.FU_type_0::SimdFloatAdd              0      0.00%     66.13% # Type of FU issued
system.cpu1.iq.FU_type_0::SimdFloatAlu              0      0.00%     66.13% # Type of FU issued
system.cpu1.iq.FU_type_0::SimdFloatCmp              0      0.00%     66.13% # Type of FU issued
system.cpu1.iq.FU_type_0::SimdFloatCvt              0      0.00%     66.13% # Type of FU issued
system.cpu1.iq.FU_type_0::SimdFloatDiv              0      0.00%     66.13% # Type of FU issued
system.cpu1.iq.FU_type_0::SimdFloatMisc             0      0.00%     66.13% # Type of FU issued
system.cpu1.iq.FU_type_0::SimdFloatMult             0      0.00%     66.13% # Type of FU issued
system.cpu1.iq.FU_type_0::SimdFloatMultAcc            0      0.00%     66.13% # Type of FU issued
system.cpu1.iq.FU_type_0::SimdFloatSqrt             0      0.00%     66.13% # Type of FU issued
system.cpu1.iq.FU_type_0::SimdReduceAdd             0      0.00%     66.13% # Type of FU issued
system.cpu1.iq.FU_type_0::SimdReduceAlu             0      0.00%     66.13% # Type of FU issued
system.cpu1.iq.FU_type_0::SimdReduceCmp             0      0.00%     66.13% # Type of FU issued
system.cpu1.iq.FU_type_0::SimdFloatReduceAdd            0      0.00%     66.13% # Type of FU issued
system.cpu1.iq.FU_type_0::SimdFloatReduceCmp            0      0.00%     66.13% # Type of FU issued
system.cpu1.iq.FU_type_0::SimdAes                   0      0.00%     66.13% # Type of FU issued
system.cpu1.iq.FU_type_0::SimdAesMix                0      0.00%     66.13% # Type of FU issued
system.cpu1.iq.FU_type_0::SimdSha1Hash              0      0.00%     66.13% # Type of FU issued
system.cpu1.iq.FU_type_0::SimdSha1Hash2             0      0.00%     66.13% # Type of FU issued
system.cpu1.iq.FU_type_0::SimdSha256Hash            0      0.00%     66.13% # Type of FU issued
system.cpu1.iq.FU_type_0::SimdSha256Hash2            0      0.00%     66.13% # Type of FU issued
system.cpu1.iq.FU_type_0::SimdShaSigma2             0      0.00%     66.13% # Type of FU issued
system.cpu1.iq.FU_type_0::SimdShaSigma3             0      0.00%     66.13% # Type of FU issued
system.cpu1.iq.FU_type_0::SimdPredAlu               0      0.00%     66.13% # Type of FU issued
system.cpu1.iq.FU_type_0::MemRead            20629289     26.58%     92.72% # Type of FU issued
system.cpu1.iq.FU_type_0::MemWrite            5652261      7.28%    100.00% # Type of FU issued
system.cpu1.iq.FU_type_0::FloatMemRead              0      0.00%    100.00% # Type of FU issued
system.cpu1.iq.FU_type_0::FloatMemWrite            12      0.00%    100.00% # Type of FU issued
system.cpu1.iq.FU_type_0::IprAccess                 0      0.00%    100.00% # Type of FU issued
system.cpu1.iq.FU_type_0::InstPrefetch              0      0.00%    100.00% # Type of FU issued
system.cpu1.iq.FU_type_0::total              77599348                       # Type of FU issued
system.cpu1.iq.fp_alu_accesses                     16                       # Number of floating point alu accesses
system.cpu1.iq.fp_inst_queue_reads                 28                       # Number of floating instruction queue reads
system.cpu1.iq.fp_inst_queue_wakeup_accesses           12                       # Number of floating instruction queue wakeup accesses
system.cpu1.iq.fp_inst_queue_writes                12                       # Number of floating instruction queue writes
system.cpu1.iq.fu_busy_cnt                    1520662                       # FU busy when requested
system.cpu1.iq.fu_busy_rate                  0.019596                       # FU busy rate (busy events/executed inst)
system.cpu1.iq.fu_full::No_OpClass                  0      0.00%      0.00% # attempts to use FU when none available
system.cpu1.iq.fu_full::IntAlu                 315113     20.72%     20.72% # attempts to use FU when none available
system.cpu1.iq.fu_full::IntMult                     0      0.00%     20.72% # attempts to use FU when none available
system.cpu1.iq.fu_full::IntDiv                      0      0.00%     20.72% # attempts to use FU when none available
system.cpu1.iq.fu_full::FloatAdd                    0      0.00%     20.72% # attempts to use FU when none available
system.cpu1.iq.fu_full::FloatCmp                    0      0.00%     20.72% # attempts to use FU when none available
system.cpu1.iq.fu_full::FloatCvt                    0      0.00%     20.72% # attempts to use FU when none available
system.cpu1.iq.fu_full::FloatMult                   0      0.00%     20.72% # attempts to use FU when none available
system.cpu1.iq.fu_full::FloatMultAcc                0      0.00%     20.72% # attempts to use FU when none available
system.cpu1.iq.fu_full::FloatDiv                    0      0.00%     20.72% # attempts to use FU when none available
system.cpu1.iq.fu_full::FloatMisc                   0      0.00%     20.72% # attempts to use FU when none available
system.cpu1.iq.fu_full::FloatSqrt                   0      0.00%     20.72% # attempts to use FU when none available
system.cpu1.iq.fu_full::SimdAdd                     0      0.00%     20.72% # attempts to use FU when none available
system.cpu1.iq.fu_full::SimdAddAcc                  0      0.00%     20.72% # attempts to use FU when none available
system.cpu1.iq.fu_full::SimdAlu                     0      0.00%     20.72% # attempts to use FU when none available
system.cpu1.iq.fu_full::SimdCmp                     0      0.00%     20.72% # attempts to use FU when none available
system.cpu1.iq.fu_full::SimdCvt                     0      0.00%     20.72% # attempts to use FU when none available
system.cpu1.iq.fu_full::SimdMisc                    0      0.00%     20.72% # attempts to use FU when none available
system.cpu1.iq.fu_full::SimdMult                    0      0.00%     20.72% # attempts to use FU when none available
system.cpu1.iq.fu_full::SimdMultAcc                 0      0.00%     20.72% # attempts to use FU when none available
system.cpu1.iq.fu_full::SimdShift                   0      0.00%     20.72% # attempts to use FU when none available
system.cpu1.iq.fu_full::SimdShiftAcc                0      0.00%     20.72% # attempts to use FU when none available
system.cpu1.iq.fu_full::SimdDiv                     0      0.00%     20.72% # attempts to use FU when none available
system.cpu1.iq.fu_full::SimdSqrt                    0      0.00%     20.72% # attempts to use FU when none available
system.cpu1.iq.fu_full::SimdFloatAdd                0      0.00%     20.72% # attempts to use FU when none available
system.cpu1.iq.fu_full::SimdFloatAlu                0      0.00%     20.72% # attempts to use FU when none available
system.cpu1.iq.fu_full::SimdFloatCmp                0      0.00%     20.72% # attempts to use FU when none available
system.cpu1.iq.fu_full::SimdFloatCvt                0      0.00%     20.72% # attempts to use FU when none available
system.cpu1.iq.fu_full::SimdFloatDiv                0      0.00%     20.72% # attempts to use FU when none available
system.cpu1.iq.fu_full::SimdFloatMisc               0      0.00%     20.72% # attempts to use FU when none available
system.cpu1.iq.fu_full::SimdFloatMult               0      0.00%     20.72% # attempts to use FU when none available
system.cpu1.iq.fu_full::SimdFloatMultAcc            0      0.00%     20.72% # attempts to use FU when none available
system.cpu1.iq.fu_full::SimdFloatSqrt               0      0.00%     20.72% # attempts to use FU when none available
system.cpu1.iq.fu_full::SimdReduceAdd               0      0.00%     20.72% # attempts to use FU when none available
system.cpu1.iq.fu_full::SimdReduceAlu               0      0.00%     20.72% # attempts to use FU when none available
system.cpu1.iq.fu_full::SimdReduceCmp               0      0.00%     20.72% # attempts to use FU when none available
system.cpu1.iq.fu_full::SimdFloatReduceAdd            0      0.00%     20.72% # attempts to use FU when none available
system.cpu1.iq.fu_full::SimdFloatReduceCmp            0      0.00%     20.72% # attempts to use FU when none available
system.cpu1.iq.fu_full::SimdAes                     0      0.00%     20.72% # attempts to use FU when none available
system.cpu1.iq.fu_full::SimdAesMix                  0      0.00%     20.72% # attempts to use FU when none available
system.cpu1.iq.fu_full::SimdSha1Hash                0      0.00%     20.72% # attempts to use FU when none available
system.cpu1.iq.fu_full::SimdSha1Hash2               0      0.00%     20.72% # attempts to use FU when none available
system.cpu1.iq.fu_full::SimdSha256Hash              0      0.00%     20.72% # attempts to use FU when none available
system.cpu1.iq.fu_full::SimdSha256Hash2             0      0.00%     20.72% # attempts to use FU when none available
system.cpu1.iq.fu_full::SimdShaSigma2               0      0.00%     20.72% # attempts to use FU when none available
system.cpu1.iq.fu_full::SimdShaSigma3               0      0.00%     20.72% # attempts to use FU when none available
system.cpu1.iq.fu_full::SimdPredAlu                 0      0.00%     20.72% # attempts to use FU when none available
system.cpu1.iq.fu_full::MemRead                961876     63.25%     83.98% # attempts to use FU when none available
[...]
system.cpu1.dcache.WriteReq_mshr_miss_rate::total     0.047023                       # mshr miss rate for WriteReq accesses
system.cpu1.dcache.WriteReq_avg_mshr_miss_latency::.cpu1.data 110532.296769                       # average WriteReq mshr miss latency
system.cpu1.dcache.WriteReq_avg_mshr_miss_latency::total 110532.296769                       # average WriteReq mshr miss latency
system.cpu1.dcache.LoadLockedReq_hits::.cpu1.data        16679                       # number of LoadLockedReq hits
system.cpu1.dcache.LoadLockedReq_hits::total        16679                       # number of LoadLockedReq hits
system.cpu1.dcache.LoadLockedReq_misses::.cpu1.data          739                       # number of LoadLockedReq misses
system.cpu1.dcache.LoadLockedReq_misses::total          739                       # number of LoadLockedReq misses
system.cpu1.dcache.LoadLockedReq_miss_latency::.cpu1.data     23933000                       # number of LoadLockedReq miss cycles
system.cpu1.dcache.LoadLockedReq_miss_latency::total     23933000                       # number of LoadLockedReq miss cycles
system.cpu1.dcache.LoadLockedReq_accesses::.cpu1.data        17418                       # number of LoadLockedReq accesses(hits+misses)
system.cpu1.dcache.LoadLockedReq_accesses::total        17418                       # number of LoadLockedReq accesses(hits+misses)
system.cpu1.dcache.LoadLockedReq_miss_rate::.cpu1.data     0.042427                       # miss rate for LoadLockedReq accesses
system.cpu1.dcache.LoadLockedReq_miss_rate::total     0.042427                       # miss rate for LoadLockedReq accesses
system.cpu1.dcache.LoadLockedReq_avg_miss_latency::.cpu1.data 32385.656292                       # average LoadLockedReq miss latency
system.cpu1.dcache.LoadLockedReq_avg_miss_latency::total 32385.656292                       # average LoadLockedReq miss latency
system.cpu1.dcache.LoadLockedReq_mshr_hits::.cpu1.data          171                       # number of LoadLockedReq MSHR hits
system.cpu1.dcache.LoadLockedReq_mshr_hits::total          171                       # number of LoadLockedReq MSHR hits
system.cpu1.dcache.LoadLockedReq_mshr_misses::.cpu1.data          568                       # number of LoadLockedReq MSHR misses
system.cpu1.dcache.LoadLockedReq_mshr_misses::total          568                       # number of LoadLockedReq MSHR misses
system.cpu1.dcache.LoadLockedReq_mshr_miss_latency::.cpu1.data     16681000                       # number of LoadLockedReq MSHR miss cycles
system.cpu1.dcache.LoadLockedReq_mshr_miss_latency::total     16681000                       # number of LoadLockedReq MSHR miss cycles
system.cpu1.dcache.LoadLockedReq_mshr_miss_rate::.cpu1.data     0.032610                       # mshr miss rate for LoadLockedReq accesses
system.cpu1.dcache.LoadLockedReq_mshr_miss_rate::total     0.032610                       # mshr miss rate for LoadLockedReq accesses
system.cpu1.dcache.LoadLockedReq_avg_mshr_miss_latency::.cpu1.data 29367.957746                       # average LoadLockedReq mshr miss latency
system.cpu1.dcache.LoadLockedReq_avg_mshr_miss_latency::total 29367.957746                       # average LoadLockedReq mshr miss latency
system.cpu1.dcache.StoreCondReq_hits::.cpu1.data        15870                       # number of StoreCondReq hits
system.cpu1.dcache.StoreCondReq_hits::total        15870                       # number of StoreCondReq hits
system.cpu1.dcache.StoreCondReq_misses::.cpu1.data          778                       # number of StoreCondReq misses
system.cpu1.dcache.StoreCondReq_misses::total          778                       # number of StoreCondReq misses
system.cpu1.dcache.StoreCondReq_miss_latency::.cpu1.data      7035500                       # number of StoreCondReq miss cycles
system.cpu1.dcache.StoreCondReq_miss_latency::total      7035500                       # number of StoreCondReq miss cycles
system.cpu1.dcache.StoreCondReq_accesses::.cpu1.data        16648                       # number of StoreCondReq accesses(hits+misses)
system.cpu1.dcache.StoreCondReq_accesses::total        16648                       # number of StoreCondReq accesses(hits+misses)
system.cpu1.dcache.StoreCondReq_miss_rate::.cpu1.data     0.046732                       # miss rate for StoreCondReq accesses
system.cpu1.dcache.StoreCondReq_miss_rate::total     0.046732                       # miss rate for StoreCondReq accesses
system.cpu1.dcache.StoreCondReq_avg_miss_latency::.cpu1.data  9043.059126                       # average StoreCondReq miss latency
system.cpu1.dcache.StoreCondReq_avg_miss_latency::total  9043.059126                       # average StoreCondReq miss latency
system.cpu1.dcache.StoreCondReq_mshr_misses::.cpu1.data          769                       # number of StoreCondReq MSHR misses
system.cpu1.dcache.StoreCondReq_mshr_misses::total          769                       # number of StoreCondReq MSHR misses
system.cpu1.dcache.StoreCondReq_mshr_miss_latency::.cpu1.data      6334500                       # number of StoreCondReq MSHR miss cycles
system.cpu1.dcache.StoreCondReq_mshr_miss_latency::total      6334500                       # number of StoreCondReq MSHR miss cycles
system.cpu1.dcache.StoreCondReq_mshr_miss_rate::.cpu1.data     0.046192                       # mshr miss rate for StoreCondReq accesses
system.cpu1.dcache.StoreCondReq_mshr_miss_rate::total     0.046192                       # mshr miss rate for StoreCondReq accesses
system.cpu1.dcache.StoreCondReq_avg_mshr_miss_latency::.cpu1.data  8237.321196                       # average StoreCondReq mshr miss latency
system.cpu1.dcache.StoreCondReq_avg_mshr_miss_latency::total  8237.321196                       # average StoreCondReq mshr miss latency
system.cpu1.dcache.StoreCondFailReq_miss_latency::.cpu1.data      1543000                       # number of StoreCondFailReq miss cycles
system.cpu1.dcache.StoreCondFailReq_miss_latency::total      1543000                       # number of StoreCondFailReq miss cycles
system.cpu1.dcache.StoreCondFailReq_avg_miss_latency::.cpu1.data          inf                       # average StoreCondFailReq miss latency
system.cpu1.dcache.StoreCondFailReq_avg_miss_latency::total          inf                       # average StoreCondFailReq miss latency
system.cpu1.dcache.StoreCondFailReq_mshr_miss_latency::.cpu1.data      1475000                       # number of StoreCondFailReq MSHR miss cycles
system.cpu1.dcache.StoreCondFailReq_mshr_miss_latency::total      1475000                       # number of StoreCondFailReq MSHR miss cycles
system.cpu1.dcache.StoreCondFailReq_avg_mshr_miss_latency::.cpu1.data          inf                       # average StoreCondFailReq mshr miss latency
system.cpu1.dcache.StoreCondFailReq_avg_mshr_miss_latency::total          inf                       # average StoreCondFailReq mshr miss latency
system.cpu1.dcache.SwapReq_hits::.cpu1.data          653                       # number of SwapReq hits
system.cpu1.dcache.SwapReq_hits::total            653                       # number of SwapReq hits
system.cpu1.dcache.SwapReq_misses::.cpu1.data         1306                       # number of SwapReq misses
system.cpu1.dcache.SwapReq_misses::total         1306                       # number of SwapReq misses
system.cpu1.dcache.SwapReq_miss_latency::.cpu1.data     14365000                       # number of SwapReq miss cycles
system.cpu1.dcache.SwapReq_miss_latency::total     14365000                       # number of SwapReq miss cycles
system.cpu1.dcache.SwapReq_accesses::.cpu1.data         1959                       # number of SwapReq accesses(hits+misses)
system.cpu1.dcache.SwapReq_accesses::total         1959                       # number of SwapReq accesses(hits+misses)
system.cpu1.dcache.SwapReq_miss_rate::.cpu1.data     0.666667                       # miss rate for SwapReq accesses
system.cpu1.dcache.SwapReq_miss_rate::total     0.666667                       # miss rate for SwapReq accesses
system.cpu1.dcache.SwapReq_avg_miss_latency::.cpu1.data 10999.234303                       # average SwapReq miss latency
system.cpu1.dcache.SwapReq_avg_miss_latency::total 10999.234303                       # average SwapReq miss latency
system.cpu1.dcache.SwapReq_mshr_hits::.cpu1.data            1                       # number of SwapReq MSHR hits
system.cpu1.dcache.SwapReq_mshr_hits::total            1                       # number of SwapReq MSHR hits
system.cpu1.dcache.SwapReq_mshr_misses::.cpu1.data         1305                       # number of SwapReq MSHR misses
system.cpu1.dcache.SwapReq_mshr_misses::total         1305                       # number of SwapReq MSHR misses
system.cpu1.dcache.SwapReq_mshr_miss_latency::.cpu1.data     13055000                       # number of SwapReq MSHR miss cycles
system.cpu1.dcache.SwapReq_mshr_miss_latency::total     13055000                       # number of SwapReq MSHR miss cycles
system.cpu1.dcache.SwapReq_mshr_miss_rate::.cpu1.data     0.666156                       # mshr miss rate for SwapReq accesses
system.cpu1.dcache.SwapReq_mshr_miss_rate::total     0.666156                       # mshr miss rate for SwapReq accesses
system.cpu1.dcache.SwapReq_avg_mshr_miss_latency::.cpu1.data 10003.831418                       # average SwapReq mshr miss latency
system.cpu1.dcache.SwapReq_avg_mshr_miss_latency::total 10003.831418                       # average SwapReq mshr miss latency
system.cpu1.dcache.tags.pwrStateResidencyTicks::UNDEFINED  44502891500                       # Cumulative time (in ticks) in various power states
system.cpu1.dcache.tags.tagsinuse           31.435580                       # Cycle average of tags in use
system.cpu1.dcache.tags.total_refs            7953868                       # Total number of references to valid blocks.
system.cpu1.dcache.tags.sampled_refs           498369                       # Sample count of references to valid blocks.
system.cpu1.dcache.tags.avg_refs            15.959797                       # Average number of references to valid blocks.
system.cpu1.dcache.tags.warmup_cycle                0                       # Cycle when the warmup percentage was hit.
system.cpu1.dcache.tags.occ_blocks::.cpu1.data    31.435580                       # Average occupied blocks per requestor
system.cpu1.dcache.tags.occ_percent::.cpu1.data     0.982362                       # Average percentage of cache occupancy
system.cpu1.dcache.tags.occ_percent::total     0.982362                       # Average percentage of cache occupancy
system.cpu1.dcache.tags.occ_task_id_blocks::1024           27                       # Occupied blocks per task id
system.cpu1.dcache.tags.age_task_id_blocks_1024::1           27                       # Occupied blocks per task id
system.cpu1.dcache.tags.occ_task_id_percent::1024     0.843750                       # Percentage of cache occupancy per task id
system.cpu1.dcache.tags.tag_accesses         25405649                       # Number of tag accesses
system.cpu1.dcache.tags.data_accesses        25405649                       # Number of data accesses
system.cpu_clk_domain.clock                       500                       # Clock period in ticks
system.tol2bus.pwrStateResidencyTicks::UNDEFINED  44502891500                       # Cumulative time (in ticks) in various power states
system.tol2bus.trans_dist::ReadResp           1688900                       # Transaction distribution
system.tol2bus.trans_dist::ReadRespWithInvalidate            6                       # Transaction distribution
system.tol2bus.trans_dist::WritebackDirty      1869953                       # Transaction distribution
system.tol2bus.trans_dist::WritebackClean      1217898                       # Transaction distribution
system.tol2bus.trans_dist::CleanEvict         3632997                       # Transaction distribution
system.tol2bus.trans_dist::HardPFReq          1448070                       # Transaction distribution
system.tol2bus.trans_dist::UpgradeReq            5027                       # Transaction distribution
system.tol2bus.trans_dist::SCUpgradeReq          3620                       # Transaction distribution
system.tol2bus.trans_dist::UpgradeResp           8647                       # Transaction distribution
system.tol2bus.trans_dist::SCUpgradeFailReq          205                       # Transaction distribution
system.tol2bus.trans_dist::UpgradeFailResp          205                       # Transaction distribution
system.tol2bus.trans_dist::ReadExReq           479086                       # Transaction distribution
system.tol2bus.trans_dist::ReadExResp          479086                       # Transaction distribution
system.tol2bus.trans_dist::ReadCleanReq        119630                       # Transaction distribution
system.tol2bus.trans_dist::ReadSharedReq      1569275                       # Transaction distribution
system.tol2bus.trans_dist::InvalidateReq         3336                       # Transaction distribution
system.tol2bus.trans_dist::InvalidateResp         3336                       # Transaction distribution
system.tol2bus.pkt_count_system.cpu0.icache.mem_side::system.l2.cpu_side       217673                       # Packet count per connected master and slave (bytes)
system.tol2bus.pkt_count_system.cpu0.dcache.mem_side::system.l2.cpu_side      1654325                       # Packet count per connected master and slave (bytes)
system.tol2bus.pkt_count_system.cpu1.icache.mem_side::system.l2.cpu_side        47838                       # Packet count per connected master and slave (bytes)
system.tol2bus.pkt_count_system.cpu1.dcache.mem_side::system.l2.cpu_side      1489633                       # Packet count per connected master and slave (bytes)
system.tol2bus.pkt_count_system.cpu2.icache.mem_side::system.l2.cpu_side        46980                       # Packet count per connected master and slave (bytes)
system.tol2bus.pkt_count_system.cpu2.dcache.mem_side::system.l2.cpu_side      1494364                       # Packet count per connected master and slave (bytes)
system.tol2bus.pkt_count_system.cpu3.icache.mem_side::system.l2.cpu_side        46401                       # Packet count per connected master and slave (bytes)
system.tol2bus.pkt_count_system.cpu3.dcache.mem_side::system.l2.cpu_side      1498473                       # Packet count per connected master and slave (bytes)
system.tol2bus.pkt_count::total               6495687                       # Packet count per connected master and slave (bytes)
system.tol2bus.pkt_size_system.cpu0.icache.mem_side::system.l2.cpu_side      9287424                       # Cumulative packet size per connected master and slave (bytes)
system.tol2bus.pkt_size_system.cpu0.dcache.mem_side::system.l2.cpu_side     70101760                       # Cumulative packet size per connected master and slave (bytes)
system.tol2bus.pkt_size_system.cpu1.icache.mem_side::system.l2.cpu_side      2041088                       # Cumulative packet size per connected master and slave (bytes)
system.tol2bus.pkt_size_system.cpu1.dcache.mem_side::system.l2.cpu_side     63289280                       # Cumulative packet size per connected master and slave (bytes)
system.tol2bus.pkt_size_system.cpu2.icache.mem_side::system.l2.cpu_side      2004480                       # Cumulative packet size per connected master and slave (bytes)
system.tol2bus.pkt_size_system.cpu2.dcache.mem_side::system.l2.cpu_side     63483840                       # Cumulative packet size per connected master and slave (bytes)
system.tol2bus.pkt_size_system.cpu3.icache.mem_side::system.l2.cpu_side      1979776                       # Cumulative packet size per connected master and slave (bytes)
system.tol2bus.pkt_size_system.cpu3.dcache.mem_side::system.l2.cpu_side     63656896                       # Cumulative packet size per connected master and slave (bytes)
system.tol2bus.pkt_size::total              275844544                       # Cumulative packet size per connected master and slave (bytes)
system.tol2bus.snoops                         6033590                       # Total snoops (count)
system.tol2bus.snoopTraffic                  60542528                       # Total snoop traffic (bytes)
system.tol2bus.snoop_fanout::samples          8194373                       # Request fanout histogram
system.tol2bus.snoop_fanout::mean            0.261966                       # Request fanout histogram
system.tol2bus.snoop_fanout::stdev           0.500816                       # Request fanout histogram
system.tol2bus.snoop_fanout::underflows             0      0.00%      0.00% # Request fanout histogram
system.tol2bus.snoop_fanout::0                6201784     75.68%     75.68% # Request fanout histogram
system.tol2bus.snoop_fanout::1                1905530     23.25%     98.94% # Request fanout histogram
system.tol2bus.snoop_fanout::2                  34490      0.42%     99.36% # Request fanout histogram
system.tol2bus.snoop_fanout::3                  38137      0.47%     99.82% # Request fanout histogram
system.tol2bus.snoop_fanout::4                  14432      0.18%    100.00% # Request fanout histogram
system.tol2bus.snoop_fanout::5                      0      0.00%    100.00% # Request fanout histogram
system.tol2bus.snoop_fanout::6                      0      0.00%    100.00% # Request fanout histogram
system.tol2bus.snoop_fanout::7                      0      0.00%    100.00% # Request fanout histogram
system.tol2bus.snoop_fanout::8                      0      0.00%    100.00% # Request fanout histogram
system.tol2bus.snoop_fanout::overflows              0      0.00%    100.00% # Request fanout histogram
system.tol2bus.snoop_fanout::min_value              0                       # Request fanout histogram
system.tol2bus.snoop_fanout::max_value              4                       # Request fanout histogram
system.tol2bus.snoop_fanout::total            8194373                       # Request fanout histogram
system.tol2bus.reqLayer0.occupancy         4326451400                       # Layer occupancy (ticks)
system.tol2bus.reqLayer0.utilization              9.7                       # Layer utilization (%)
system.tol2bus.respLayer5.occupancy         751579139                       # Layer occupancy (ticks)
system.tol2bus.respLayer5.utilization             1.7                       # Layer utilization (%)
system.tol2bus.respLayer4.occupancy          25350927                       # Layer occupancy (ticks)
system.tol2bus.respLayer4.utilization             0.1                       # Layer utilization (%)
system.tol2bus.respLayer7.occupancy         753658425                       # Layer occupancy (ticks)
system.tol2bus.respLayer7.utilization             1.7                       # Layer utilization (%)
system.tol2bus.respLayer6.occupancy          24961200                       # Layer occupancy (ticks)
system.tol2bus.respLayer6.utilization             0.1                       # Layer utilization (%)
system.tol2bus.respLayer1.occupancy         827155495                       # Layer occupancy (ticks)
system.tol2bus.respLayer1.utilization             1.9                       # Layer utilization (%)
system.tol2bus.respLayer0.occupancy         109091368                       # Layer occupancy (ticks)
system.tol2bus.respLayer0.utilization             0.2                       # Layer utilization (%)
system.tol2bus.respLayer3.occupancy         749228665                       # Layer occupancy (ticks)
system.tol2bus.respLayer3.utilization             1.7                       # Layer utilization (%)
system.tol2bus.respLayer2.occupancy          25716029                       # Layer occupancy (ticks)
system.tol2bus.respLayer2.utilization             0.1                       # Layer utilization (%)

---------- End Simulation Statistics   ----------
