
---------- Begin Simulation Statistics ----------
final_tick                               736571382000                       # Number of ticks from beginning of simulation (restored from checkpoints and never reset)
host_inst_rate                                  74638                       # Simulator instruction rate (inst/s)
host_mem_usage                                 701744                       # Number of bytes of host memory used
host_op_rate                                    74861                       # Simulator op (including micro ops) rate (op/s)
host_seconds                                  9123.83                       # Real time elapsed on the host
host_tick_rate                               80730524                       # Simulator tick rate (ticks/s)
sim_freq                                 1000000000000                       # Frequency of simulated ticks
sim_insts                                   680981281                       # Number of instructions simulated
sim_ops                                     683018888                       # Number of ops (including micro ops) simulated
sim_seconds                                  0.736571                       # Number of seconds simulated
sim_ticks                                736571382000                       # Number of ticks simulated
system.cpu0.branchPred.BTBCorrect                   0                       # Number of correct BTB predictions (this stat may not work properly.
system.cpu0.branchPred.BTBHitPct            85.056095                       # BTB Hit Percentage
system.cpu0.branchPred.BTBHits               83941958                       # Number of BTB hits
system.cpu0.branchPred.BTBLookups            98690115                       # Number of BTB lookups
system.cpu0.branchPred.RASInCorrect                 0                       # Number of incorrect RAS predictions.
system.cpu0.branchPred.condIncorrect          7702042                       # Number of conditional branches incorrect
system.cpu0.branchPred.condPredicted        131783548                       # Number of conditional branches predicted
system.cpu0.branchPred.indirectHits          13166843                       # Number of indirect target hits.
system.cpu0.branchPred.indirectLookups       13290442                       # Number of indirect predictor lookups.
system.cpu0.branchPred.indirectMisses          123599                       # Number of indirect misses.
system.cpu0.branchPred.lookups              168383560                       # Number of BP lookups
system.cpu0.branchPred.usedRAS                      0                       # Number of times the RAS was used to get a target.
system.cpu0.branchPredindirectMispredicted      1082871                       # Number of mispredicted indirect branches.
system.cpu0.commit.amos                       1018215                       # Number of atomic instructions committed
system.cpu0.commit.branchMispredicts          5044183                       # The number of times a branch was mispredicted
system.cpu0.commit.branches                 151195859                       # Number of branches committed
system.cpu0.commit.bw_lim_events             25140431                       # number cycles where commit BW limit reached
system.cpu0.commit.commitNonSpecStalls        3058523                       # The number of times commit has been forced to stall to communicate backwards
system.cpu0.commit.commitSquashedInsts       68550443                       # The number of squashed insts skipped by commit
system.cpu0.commit.committedInsts           623591714                       # Number of instructions committed
system.cpu0.commit.committedOps             624611215                       # Number of ops (including micro ops) committed
system.cpu0.commit.committed_per_cycle::samples   1115985111                       # Number of insts commited each cycle
system.cpu0.commit.committed_per_cycle::mean     0.559695                       # Number of insts commited each cycle
system.cpu0.commit.committed_per_cycle::stdev     1.438087                       # Number of insts commited each cycle
system.cpu0.commit.committed_per_cycle::underflows            0      0.00%      0.00% # Number of insts commited each cycle
system.cpu0.commit.committed_per_cycle::0    844050209     75.63%     75.63% # Number of insts commited each cycle
system.cpu0.commit.committed_per_cycle::1    155279581     13.91%     89.55% # Number of insts commited each cycle
system.cpu0.commit.committed_per_cycle::2     39460110      3.54%     93.08% # Number of insts commited each cycle
system.cpu0.commit.committed_per_cycle::3     30854475      2.76%     95.85% # Number of insts commited each cycle
system.cpu0.commit.committed_per_cycle::4     13631018      1.22%     97.07% # Number of insts commited each cycle
system.cpu0.commit.committed_per_cycle::5      4482421      0.40%     97.47% # Number of insts commited each cycle
system.cpu0.commit.committed_per_cycle::6      1819698      0.16%     97.63% # Number of insts commited each cycle
system.cpu0.commit.committed_per_cycle::7      1267168      0.11%     97.75% # Number of insts commited each cycle
system.cpu0.commit.committed_per_cycle::8     25140431      2.25%    100.00% # Number of insts commited each cycle
system.cpu0.commit.committed_per_cycle::overflows            0      0.00%    100.00% # Number of insts commited each cycle
system.cpu0.commit.committed_per_cycle::min_value            0                       # Number of insts commited each cycle
system.cpu0.commit.committed_per_cycle::max_value            8                       # Number of insts commited each cycle
system.cpu0.commit.committed_per_cycle::total   1115985111                       # Number of insts commited each cycle
system.cpu0.commit.fp_insts                        50                       # Number of committed floating point instructions.
system.cpu0.commit.function_calls            13130004                       # Number of function calls committed.
system.cpu0.commit.int_insts                604907390                       # Number of committed integer instructions.
system.cpu0.commit.loads                    190133253                       # Number of loads committed
system.cpu0.commit.membars                    2037603                       # Number of memory barriers committed
system.cpu0.commit.op_class_0::No_OpClass      2037609      0.33%      0.33% # Class of committed instruction
system.cpu0.commit.op_class_0::IntAlu       347101146     55.57%     55.90% # Class of committed instruction
system.cpu0.commit.op_class_0::IntMult        4400507      0.70%     56.60% # Class of committed instruction
system.cpu0.commit.op_class_0::IntDiv         1542070      0.25%     56.85% # Class of committed instruction
system.cpu0.commit.op_class_0::FloatAdd             0      0.00%     56.85% # Class of committed instruction
system.cpu0.commit.op_class_0::FloatCmp             4      0.00%     56.85% # Class of committed instruction
system.cpu0.commit.op_class_0::FloatCvt            12      0.00%     56.85% # Class of committed instruction
system.cpu0.commit.op_class_0::FloatMult            0      0.00%     56.85% # Class of committed instruction
system.cpu0.commit.op_class_0::FloatMultAcc            0      0.00%     56.85% # Class of committed instruction
system.cpu0.commit.op_class_0::FloatDiv             2      0.00%     56.85% # Class of committed instruction
system.cpu0.commit.op_class_0::FloatMisc            4      0.00%     56.85% # Class of committed instruction
system.cpu0.commit.op_class_0::FloatSqrt            0      0.00%     56.85% # Class of committed instruction
system.cpu0.commit.op_class_0::SimdAdd              0      0.00%     56.85% # Class of committed instruction
system.cpu0.commit.op_class_0::SimdAddAcc            0      0.00%     56.85% # Class of committed instruction
system.cpu0.commit.op_class_0::SimdAlu              0      0.00%     56.85% # Class of committed instruction
system.cpu0.commit.op_class_0::SimdCmp              0      0.00%     56.85% # Class of committed instruction
system.cpu0.commit.op_class_0::SimdCvt              0      0.00%     56.85% # Class of committed instruction
system.cpu0.commit.op_class_0::SimdMisc             0      0.00%     56.85% # Class of committed instruction
system.cpu0.commit.op_class_0::SimdMult             0      0.00%     56.85% # Class of committed instruction
system.cpu0.commit.op_class_0::SimdMultAcc            0      0.00%     56.85% # Class of committed instruction
system.cpu0.commit.op_class_0::SimdShift            0      0.00%     56.85% # Class of committed instruction
system.cpu0.commit.op_class_0::SimdShiftAcc            0      0.00%     56.85% # Class of committed instruction
system.cpu0.commit.op_class_0::SimdDiv              0      0.00%     56.85% # Class of committed instruction
system.cpu0.commit.op_class_0::SimdSqrt             0      0.00%     56.85% # Class of committed instruction
system.cpu0.commit.op_class_0::SimdFloatAdd            0      0.00%     56.85% # Class of committed instruction
system.cpu0.commit.op_class_0::SimdFloatAlu            0      0.00%     56.85% # Class of committed instruction
system.cpu0.commit.op_class_0::SimdFloatCmp            0      0.00%     56.85% # Class of committed instruction
system.cpu0.commit.op_class_0::SimdFloatCvt            0      0.00%     56.85% # Class of committed instruction
system.cpu0.commit.op_class_0::SimdFloatDiv            0      0.00%     56.85% # Class of committed instruction
system.cpu0.commit.op_class_0::SimdFloatMisc            0      0.00%     56.85% # Class of committed instruction
system.cpu0.commit.op_class_0::SimdFloatMult            0      0.00%     56.85% # Class of committed instruction
system.cpu0.commit.op_class_0::SimdFloatMultAcc            0      0.00%     56.85% # Class of committed instruction
system.cpu0.commit.op_class_0::SimdFloatSqrt            0      0.00%     56.85% # Class of committed instruction
system.cpu0.commit.op_class_0::SimdReduceAdd            0      0.00%     56.85% # Class of committed instruction
system.cpu0.commit.op_class_0::SimdReduceAlu            0      0.00%     56.85% # Class of committed instruction
system.cpu0.commit.op_class_0::SimdReduceCmp            0      0.00%     56.85% # Class of committed instruction
system.cpu0.commit.op_class_0::SimdFloatReduceAdd            0      0.00%     56.85% # Class of committed instruction
system.cpu0.commit.op_class_0::SimdFloatReduceCmp            0      0.00%     56.85% # Class of committed instruction
system.cpu0.commit.op_class_0::SimdAes              0      0.00%     56.85% # Class of committed instruction
system.cpu0.commit.op_class_0::SimdAesMix            0      0.00%     56.85% # Class of committed instruction
system.cpu0.commit.op_class_0::SimdSha1Hash            0      0.00%     56.85% # Class of committed instruction
system.cpu0.commit.op_class_0::SimdSha1Hash2            0      0.00%     56.85% # Class of committed instruction
system.cpu0.commit.op_class_0::SimdSha256Hash            0      0.00%     56.85% # Class of committed instruction
system.cpu0.commit.op_class_0::SimdSha256Hash2            0      0.00%     56.85% # Class of committed instruction
system.cpu0.commit.op_class_0::SimdShaSigma2            0      0.00%     56.85% # Class of committed instruction
system.cpu0.commit.op_class_0::SimdShaSigma3            0      0.00%     56.85% # Class of committed instruction
system.cpu0.commit.op_class_0::SimdPredAlu            0      0.00%     56.85% # Class of committed instruction
system.cpu0.commit.op_class_0::MemRead      191151460     30.60%     87.45% # Class of committed instruction
system.cpu0.commit.op_class_0::MemWrite      78378373     12.55%    100.00% # Class of committed instruction
system.cpu0.commit.op_class_0::FloatMemRead            8      0.00%    100.00% # Class of committed instruction
system.cpu0.commit.op_class_0::FloatMemWrite           20      0.00%    100.00% # Class of committed instruction
system.cpu0.commit.op_class_0::IprAccess            0      0.00%    100.00% # Class of committed instruction
system.cpu0.commit.op_class_0::InstPrefetch            0      0.00%    100.00% # Class of committed instruction
system.cpu0.commit.op_class_0::total        624611215                       # Class of committed instruction
system.cpu0.commit.refs                     269529861                       # Number of memory references committed
system.cpu0.commit.swp_count                        0                       # Number of s/w prefetches committed
system.cpu0.commit.vec_insts                        0                       # Number of committed Vector instructions.
system.cpu0.committedInsts                  623591714                       # Number of Instructions Simulated
system.cpu0.committedOps                    624611215                       # Number of Ops (including micro ops) Simulated
system.cpu0.cpi                              2.343949                       # CPI: Cycles Per Instruction
system.cpu0.cpi_total                        2.343949                       # CPI: Total CPI of All Threads
system.cpu0.decode.BlockedCycles            235462408                       # Number of cycles decode is blocked
system.cpu0.decode.BranchMispred              2665565                       # Number of times decode detected a branch misprediction
system.cpu0.decode.BranchResolved            82580987                       # Number of times decode resolved a branch
system.cpu0.decode.DecodedInsts             705586938                       # Number of instructions handled by decode
system.cpu0.decode.IdleCycles               396925033                       # Number of cycles decode is idle
system.cpu0.decode.RunCycles                485238640                       # Number of cycles decode is running
system.cpu0.decode.SquashCycles               5052138                       # Number of cycles decode is squashing
system.cpu0.decode.SquashedInsts              8798074                       # Number of squashed instructions handled by decode
system.cpu0.decode.UnblockCycles              5371394                       # Number of cycles decode is unblocking
system.cpu0.dtb.accesses                            0                       # DTB accesses
system.cpu0.dtb.hits                                0                       # DTB hits
system.cpu0.dtb.misses                              0                       # DTB misses
system.cpu0.dtb.read_accesses                       0                       # DTB read accesses
system.cpu0.dtb.read_hits                           0                       # DTB read hits
system.cpu0.dtb.read_misses                         0                       # DTB read misses
system.cpu0.dtb.write_accesses                      0                       # DTB write accesses
system.cpu0.dtb.write_hits                          0                       # DTB write hits
system.cpu0.dtb.write_misses                        0                       # DTB write misses
system.cpu0.fetch.Branches                  168383560                       # Number of branches that fetch encountered
system.cpu0.fetch.CacheLines                124559651                       # Number of cache lines fetched
system.cpu0.fetch.Cycles                    718908276                       # Number of cycles fetch has run and was not squashing or blocked
system.cpu0.fetch.IcacheSquashes              2633710                       # Number of outstanding Icache misses that were squashed
system.cpu0.fetch.IcacheWaitRetryStallCycles          119                       # Number of stall cycles due to full MSHR
system.cpu0.fetch.Insts                     721633298                       # Number of instructions fetch has processed
system.cpu0.fetch.MiscStallCycles                 152                       # Number of cycles fetch has spent waiting on interrupts, or bad addresses, or out of MSHRs
system.cpu0.fetch.PendingTrapStallCycles           81                       # Number of stall cycles due to pending traps
system.cpu0.fetch.SquashCycles               15420018                       # Number of cycles fetch has spent squashing
system.cpu0.fetch.branchRate                 0.115200                       # Number of branch fetches per cycle
system.cpu0.fetch.icacheStallCycles         401430976                       # Number of cycles fetch is stalled on an Icache miss
system.cpu0.fetch.predictedBranches          97108801                       # Number of branches that fetch has predicted taken
system.cpu0.fetch.rate                       0.493706                       # Number of inst fetches per cycle
system.cpu0.fetch.rateDist::samples        1128049613                       # Number of instructions fetched each cycle (Total)
system.cpu0.fetch.rateDist::mean             0.640622                       # Number of instructions fetched each cycle (Total)
system.cpu0.fetch.rateDist::stdev            0.881612                       # Number of instructions fetched each cycle (Total)
system.cpu0.fetch.rateDist::underflows              0      0.00%      0.00% # Number of instructions fetched each cycle (Total)
system.cpu0.fetch.rateDist::0               608674736     53.96%     53.96% # Number of instructions fetched each cycle (Total)
system.cpu0.fetch.rateDist::1               387662521     34.37%     88.32% # Number of instructions fetched each cycle (Total)
system.cpu0.fetch.rateDist::2                81602243      7.23%     95.56% # Number of instructions fetched each cycle (Total)
system.cpu0.fetch.rateDist::3                37350559      3.31%     98.87% # Number of instructions fetched each cycle (Total)
system.cpu0.fetch.rateDist::4                 6567588      0.58%     99.45% # Number of instructions fetched each cycle (Total)
system.cpu0.fetch.rateDist::5                 4712723      0.42%     99.87% # Number of instructions fetched each cycle (Total)
system.cpu0.fetch.rateDist::6                  456974      0.04%     99.91% # Number of instructions fetched each cycle (Total)
system.cpu0.fetch.rateDist::7                 1019302      0.09%    100.00% # Number of instructions fetched each cycle (Total)
system.cpu0.fetch.rateDist::8                    2967      0.00%    100.00% # Number of instructions fetched each cycle (Total)
system.cpu0.fetch.rateDist::overflows               0      0.00%    100.00% # Number of instructions fetched each cycle (Total)
system.cpu0.fetch.rateDist::min_value               0                       # Number of instructions fetched each cycle (Total)
system.cpu0.fetch.rateDist::max_value               8                       # Number of instructions fetched each cycle (Total)
system.cpu0.fetch.rateDist::total          1128049613                       # Number of instructions fetched each cycle (Total)
system.cpu0.fp_regfile_reads                       44                       # number of floating regfile reads
system.cpu0.fp_regfile_writes                      23                       # number of floating regfile writes
system.cpu0.idleCycles                      333617677                       # Total number of cycles that the CPU has spent unscheduled due to idling
system.cpu0.iew.branchMispredicts             5112671                       # Number of branch mispredicts detected at execute
system.cpu0.iew.exec_branches               159030686                       # Number of branches executed
system.cpu0.iew.exec_nop                            0                       # number of nop insts executed
system.cpu0.iew.exec_rate                    0.467051                       # Inst execution rate
system.cpu0.iew.exec_refs                   306948495                       # number of memory reference insts executed
system.cpu0.iew.exec_stores                  89630080                       # Number of stores executed
system.cpu0.iew.exec_swp                            0                       # number of swp insts executed
system.cpu0.iew.iewBlockCycles              170635678                       # Number of cycles IEW is blocking
system.cpu0.iew.iewDispLoadInsts            217702916                       # Number of dispatched load instructions
system.cpu0.iew.iewDispNonSpecInsts           1021180                       # Number of dispatched non-speculative instructions
system.cpu0.iew.iewDispSquashedInsts          2450391                       # Number of squashed instructions skipped by dispatch
system.cpu0.iew.iewDispStoreInsts            91477282                       # Number of dispatched store instructions
system.cpu0.iew.iewDispatchedInsts          693138233                       # Number of instructions dispatched to IQ
system.cpu0.iew.iewExecLoadInsts            217318415                       # Number of load instructions executed
system.cpu0.iew.iewExecSquashedInsts          5417920                       # Number of squashed instructions skipped in execute
system.cpu0.iew.iewExecutedInsts            682672946                       # Number of executed instructions
system.cpu0.iew.iewIQFullEvents                798638                       # Number of times the IQ has become full, causing a stall
system.cpu0.iew.iewIdleCycles                       0                       # Number of cycles IEW is idle
system.cpu0.iew.iewLSQFullEvents             11772323                       # Number of times the LSQ has become full, causing a stall
system.cpu0.iew.iewSquashCycles               5052138                       # Number of cycles IEW is squashing
system.cpu0.iew.iewUnblockCycles             13855514                       # Number of cycles IEW is unblocking
system.cpu0.iew.lsq.thread0.blockedLoads            0                       # Number of blocked loads due to partial load-store forwarding
system.cpu0.iew.lsq.thread0.cacheBlocked       317390                       # Number of times an access to memory failed due to the cache being blocked
system.cpu0.iew.lsq.thread0.forwLoads        18508886                       # Number of loads that had data forwarded from stores
system.cpu0.iew.lsq.thread0.ignoredResponses        10725                       # Number of memory responses ignored because the instruction is squashed
system.cpu0.iew.lsq.thread0.invAddrLoads            0                       # Number of loads ignored due to an invalid address
system.cpu0.iew.lsq.thread0.invAddrSwpfs            0                       # Number of software prefetches ignored due to an invalid address
system.cpu0.iew.lsq.thread0.memOrderViolation         8937                       # Number of memory ordering violations
system.cpu0.iew.lsq.thread0.rescheduledLoads      4149014                       # Number of loads that were rescheduled
system.cpu0.iew.lsq.thread0.squashedLoads     27569663                       # Number of loads squashed
system.cpu0.iew.lsq.thread0.squashedStores     12080663                       # Number of stores squashed
system.cpu0.iew.memOrderViolationEvents          8937                       # Number of memory order violations
system.cpu0.iew.predictedNotTakenIncorrect       688968                       # Number of branches that were predicted not taken incorrectly
system.cpu0.iew.predictedTakenIncorrect       4423703                       # Number of branches that were predicted taken incorrectly
system.cpu0.iew.wb_consumers                303820318                       # num instructions consuming a value
system.cpu0.iew.wb_count                    674319777                       # cumulative count of insts written-back
system.cpu0.iew.wb_fanout                    0.830177                       # average fanout of values written-back
system.cpu0.iew.wb_producers                252224578                       # num instructions producing a value
system.cpu0.iew.wb_rate                      0.461336                       # insts written-back per cycle
system.cpu0.iew.wb_sent                     674379790                       # cumulative count of insts sent to commit
system.cpu0.int_regfile_reads               841276851                       # number of integer regfile reads
system.cpu0.int_regfile_writes              431232702                       # number of integer regfile writes
system.cpu0.ipc                              0.426630                       # IPC: Instructions Per Cycle
system.cpu0.ipc_total                        0.426630                       # IPC: Total IPC of All Threads
system.cpu0.iq.FU_type_0::No_OpClass          2038469      0.30%      0.30% # Type of FU issued
system.cpu0.iq.FU_type_0::IntAlu            371598273     54.00%     54.30% # Type of FU issued
system.cpu0.iq.FU_type_0::IntMult             4406928      0.64%     54.94% # Type of FU issued
system.cpu0.iq.FU_type_0::IntDiv              1542828      0.22%     55.17% # Type of FU issued
system.cpu0.iq.FU_type_0::FloatAdd                  0      0.00%     55.17% # Type of FU issued
system.cpu0.iq.FU_type_0::FloatCmp                  4      0.00%     55.17% # Type of FU issued
system.cpu0.iq.FU_type_0::FloatCvt                 12      0.00%     55.17% # Type of FU issued
system.cpu0.iq.FU_type_0::FloatMult                 0      0.00%     55.17% # Type of FU issued
system.cpu0.iq.FU_type_0::FloatMultAcc              0      0.00%     55.17% # Type of FU issued
system.cpu0.iq.FU_type_0::FloatDiv                  2      0.00%     55.17% # Type of FU issued
system.cpu0.iq.FU_type_0::FloatMisc                 4      0.00%     55.17% # Type of FU issued
system.cpu0.iq.FU_type_0::FloatSqrt                 0      0.00%     55.17% # Type of FU issued
system.cpu0.iq.FU_type_0::SimdAdd                   0      0.00%     55.17% # Type of FU issued
system.cpu0.iq.FU_type_0::SimdAddAcc                0      0.00%     55.17% # Type of FU issued
system.cpu0.iq.FU_type_0::SimdAlu                   0      0.00%     55.17% # Type of FU issued
system.cpu0.iq.FU_type_0::SimdCmp                   0      0.00%     55.17% # Type of FU issued
system.cpu0.iq.FU_type_0::SimdCvt                   0      0.00%     55.17% # Type of FU issued
system.cpu0.iq.FU_type_0::SimdMisc                  0      0.00%     55.17% # Type of FU issued
system.cpu0.iq.FU_type_0::SimdMult                  0      0.00%     55.17% # Type of FU issued
system.cpu0.iq.FU_type_0::SimdMultAcc               0      0.00%     55.17% # Type of FU issued
system.cpu0.iq.FU_type_0::SimdShift                 0      0.00%     55.17% # Type of FU issued
system.cpu0.iq.FU_type_0::SimdShiftAcc              0      0.00%     55.17% # Type of FU issued
system.cpu0.iq.FU_type_0::SimdDiv                   0      0.00%     55.17% # Type of FU issued
system.cpu0.iq.FU_type_0::SimdSqrt                  0      0.00%     55.17% # Type of FU issued
system.cpu0.iq.FU_type_0::SimdFloatAdd              0      0.00%     55.17% # Type of FU issued
system.cpu0.iq.FU_type_0::SimdFloatAlu              0      0.00%     55.17% # Type of FU issued
system.cpu0.iq.FU_type_0::SimdFloatCmp              0      0.00%     55.17% # Type of FU issued
system.cpu0.iq.FU_type_0::SimdFloatCvt              0      0.00%     55.17% # Type of FU issued
system.cpu0.iq.FU_type_0::SimdFloatDiv              0      0.00%     55.17% # Type of FU issued
system.cpu0.iq.FU_type_0::SimdFloatMisc             0      0.00%     55.17% # Type of FU issued
system.cpu0.iq.FU_type_0::SimdFloatMult             0      0.00%     55.17% # Type of FU issued
system.cpu0.iq.FU_type_0::SimdFloatMultAcc            0      0.00%     55.17% # Type of FU issued
system.cpu0.iq.FU_type_0::SimdFloatSqrt             0      0.00%     55.17% # Type of FU issued
system.cpu0.iq.FU_type_0::SimdReduceAdd             0      0.00%     55.17% # Type of FU issued
system.cpu0.iq.FU_type_0::SimdReduceAlu             0      0.00%     55.17% # Type of FU issued
system.cpu0.iq.FU_type_0::SimdReduceCmp             0      0.00%     55.17% # Type of FU issued
system.cpu0.iq.FU_type_0::SimdFloatReduceAdd            0      0.00%     55.17% # Type of FU issued
system.cpu0.iq.FU_type_0::SimdFloatReduceCmp            0      0.00%     55.17% # Type of FU issued
system.cpu0.iq.FU_type_0::SimdAes                   0      0.00%     55.17% # Type of FU issued
system.cpu0.iq.FU_type_0::SimdAesMix                0      0.00%     55.17% # Type of FU issued
system.cpu0.iq.FU_type_0::SimdSha1Hash              0      0.00%     55.17% # Type of FU issued
system.cpu0.iq.FU_type_0::SimdSha1Hash2             0      0.00%     55.17% # Type of FU issued
system.cpu0.iq.FU_type_0::SimdSha256Hash            0      0.00%     55.17% # Type of FU issued
system.cpu0.iq.FU_type_0::SimdSha256Hash2            0      0.00%     55.17% # Type of FU issued
system.cpu0.iq.FU_type_0::SimdShaSigma2             0      0.00%     55.17% # Type of FU issued
system.cpu0.iq.FU_type_0::SimdShaSigma3             0      0.00%     55.17% # Type of FU issued
system.cpu0.iq.FU_type_0::SimdPredAlu               0      0.00%     55.17% # Type of FU issued
system.cpu0.iq.FU_type_0::MemRead           219534440     31.90%     87.07% # Type of FU issued
system.cpu0.iq.FU_type_0::MemWrite           88969878     12.93%    100.00% # Type of FU issued
system.cpu0.iq.FU_type_0::FloatMemRead              9      0.00%    100.00% # Type of FU issued
system.cpu0.iq.FU_type_0::FloatMemWrite            20      0.00%    100.00% # Type of FU issued
system.cpu0.iq.FU_type_0::IprAccess                 0      0.00%    100.00% # Type of FU issued
system.cpu0.iq.FU_type_0::InstPrefetch              0      0.00%    100.00% # Type of FU issued
system.cpu0.iq.FU_type_0::total             688090867                       # Type of FU issued
system.cpu0.iq.fp_alu_accesses                     55                       # Number of floating point alu accesses
system.cpu0.iq.fp_inst_queue_reads                106                       # Number of floating instruction queue reads
system.cpu0.iq.fp_inst_queue_wakeup_accesses           51                       # Number of floating instruction queue wakeup accesses
system.cpu0.iq.fp_inst_queue_writes                52                       # Number of floating instruction queue writes
system.cpu0.iq.fu_busy_cnt                    3222785                       # FU busy when requested
system.cpu0.iq.fu_busy_rate                  0.004684                       # FU busy rate (busy events/executed inst)
system.cpu0.iq.fu_full::No_OpClass                  0      0.00%      0.00% # attempts to use FU when none available
system.cpu0.iq.fu_full::IntAlu                 620637     19.26%     19.26% # attempts to use FU when none available
system.cpu0.iq.fu_full::IntMult                  1397      0.04%     19.30% # attempts to use FU when none available
system.cpu0.iq.fu_full::IntDiv                 447543     13.89%     33.19% # attempts to use FU when none available
system.cpu0.iq.fu_full::FloatAdd                    0      0.00%     33.19% # attempts to use FU when none available
system.cpu0.iq.fu_full::FloatCmp                    0      0.00%     33.19% # attempts to use FU when none available
system.cpu0.iq.fu_full::FloatCvt                    0      0.00%     33.19% # attempts to use FU when none available
system.cpu0.iq.fu_full::FloatMult                   0      0.00%     33.19% # attempts to use FU when none available
system.cpu0.iq.fu_full::FloatMultAcc                0      0.00%     33.19% # attempts to use FU when none available
system.cpu0.iq.fu_full::FloatDiv                    0      0.00%     33.19% # attempts to use FU when none available
system.cpu0.iq.fu_full::FloatMisc                   0      0.00%     33.19% # attempts to use FU when none available
system.cpu0.iq.fu_full::FloatSqrt                   0      0.00%     33.19% # attempts to use FU when none available
system.cpu0.iq.fu_full::SimdAdd                     0      0.00%     33.19% # attempts to use FU when none available
system.cpu0.iq.fu_full::SimdAddAcc                  0      0.00%     33.19% # attempts to use FU when none available
system.cpu0.iq.fu_full::SimdAlu                     0      0.00%     33.19% # attempts to use FU when none available
system.cpu0.iq.fu_full::SimdCmp                     0      0.00%     33.19% # attempts to use FU when none available
system.cpu0.iq.fu_full::SimdCvt                     0      0.00%     33.19% # attempts to use FU when none available
system.cpu0.iq.fu_full::SimdMisc                    0      0.00%     33.19% # attempts to use FU when none available
system.cpu0.iq.fu_full::SimdMult                    0      0.00%     33.19% # attempts to use FU when none available
system.cpu0.iq.fu_full::SimdMultAcc                 0      0.00%     33.19% # attempts to use FU when none available
system.cpu0.iq.fu_full::SimdShift                   0      0.00%     33.19% # attempts to use FU when none available
system.cpu0.iq.fu_full::SimdShiftAcc                0      0.00%     33.19% # attempts to use FU when none available
system.cpu0.iq.fu_full::SimdDiv                     0      0.00%     33.19% # attempts to use FU when none available
system.cpu0.iq.fu_full::SimdSqrt                    0      0.00%     33.19% # attempts to use FU when none available
system.cpu0.iq.fu_full::SimdFloatAdd                0      0.00%     33.19% # attempts to use FU when none available
system.cpu0.iq.fu_full::SimdFloatAlu                0      0.00%     33.19% # attempts to use FU when none available
system.cpu0.iq.fu_full::SimdFloatCmp                0      0.00%     33.19% # attempts to use FU when none available
system.cpu0.iq.fu_full::SimdFloatCvt                0      0.00%     33.19% # attempts to use FU when none available
system.cpu0.iq.fu_full::SimdFloatDiv                0      0.00%     33.19% # attempts to use FU when none available
system.cpu0.iq.fu_full::SimdFloatMisc               0      0.00%     33.19% # attempts to use FU when none available
system.cpu0.iq.fu_full::SimdFloatMult               0      0.00%     33.19% # attempts to use FU when none available
system.cpu0.iq.fu_full::SimdFloatMultAcc            0      0.00%     33.19% # attempts to use FU when none available
system.cpu0.iq.fu_full::SimdFloatSqrt               0      0.00%     33.19% # attempts to use FU when none available
system.cpu0.iq.fu_full::SimdReduceAdd               0      0.00%     33.19% # attempts to use FU when none available
system.cpu0.iq.fu_full::SimdReduceAlu               0      0.00%     33.19% # attempts to use FU when none available
system.cpu0.iq.fu_full::SimdReduceCmp               0      0.00%     33.19% # attempts to use FU when none available
system.cpu0.iq.fu_full::SimdFloatReduceAdd            0      0.00%     33.19% # attempts to use FU when none available
system.cpu0.iq.fu_full::SimdFloatReduceCmp            0      0.00%     33.19% # attempts to use FU when none available
system.cpu0.iq.fu_full::SimdAes                     0      0.00%     33.19% # attempts to use FU when none available
system.cpu0.iq.fu_full::SimdAesMix                  0      0.00%     33.19% # attempts to use FU when none available
system.cpu0.iq.fu_full::SimdSha1Hash                0      0.00%     33.19% # attempts to use FU when none available
system.cpu0.iq.fu_full::SimdSha1Hash2               0      0.00%     33.19% # attempts to use FU when none available
system.cpu0.iq.fu_full::SimdSha256Hash              0      0.00%     33.19% # attempts to use FU when none available
system.cpu0.iq.fu_full::SimdSha256Hash2             0      0.00%     33.19% # attempts to use FU when none available
system.cpu0.iq.fu_full::SimdShaSigma2               0      0.00%     33.19% # attempts to use FU when none available
system.cpu0.iq.fu_full::SimdShaSigma3               0      0.00%     33.19% # attempts to use FU when none available
system.cpu0.iq.fu_full::SimdPredAlu                 0      0.00%     33.19% # attempts to use FU when none available
system.cpu0.iq.fu_full::MemRead               1932731     59.97%     93.16% # attempts to use FU when none available
system.cpu0.iq.fu_full::MemWrite               220473      6.84%    100.00% # attempts to use FU when none available
system.cpu0.iq.fu_full::FloatMemRead                0      0.00%    100.00% # attempts to use FU when none available
system.cpu0.iq.fu_full::FloatMemWrite               4      0.00%    100.00% # attempts to use FU when none available
system.cpu0.iq.fu_full::IprAccess                   0      0.00%    100.00% # attempts to use FU when none available
system.cpu0.iq.fu_full::InstPrefetch                0      0.00%    100.00% # attempts to use FU when none available
system.cpu0.iq.int_alu_accesses             689275128                       # Number of integer alu accesses
system.cpu0.iq.int_inst_queue_reads        2507624474                       # Number of integer instruction queue reads
system.cpu0.iq.int_inst_queue_wakeup_accesses    674319726                       # Number of integer instruction queue wakeup accesses
system.cpu0.iq.int_inst_queue_writes        761673364                       # Number of integer instruction queue writes
system.cpu0.iq.iqInstsAdded                 690079126                       # Number of instructions added to the IQ (excludes non-spec)
system.cpu0.iq.iqInstsIssued                688090867                       # Number of instructions issued
system.cpu0.iq.iqNonSpecInstsAdded            3059107                       # Number of non-speculative instructions added to the IQ
system.cpu0.iq.iqSquashedInstsExamined       68526933                       # Number of squashed instructions iterated over during squash; mainly for profiling
system.cpu0.iq.iqSquashedInstsIssued           170449                       # Number of squashed instructions issued
system.cpu0.iq.iqSquashedNonSpecRemoved           584                       # Number of squashed non-spec instructions that were removed
system.cpu0.iq.iqSquashedOperandsExamined     18554097                       # Number of squashed operands that are examined and possibly removed from graph
system.cpu0.iq.issued_per_cycle::samples   1128049613                       # Number of insts issued each cycle
system.cpu0.iq.issued_per_cycle::mean        0.609983                       # Number of insts issued each cycle
system.cpu0.iq.issued_per_cycle::stdev       0.869348                       # Number of insts issued each cycle
system.cpu0.iq.issued_per_cycle::underflows            0      0.00%      0.00% # Number of insts issued each cycle
system.cpu0.iq.issued_per_cycle::0          646086108     57.27%     57.27% # Number of insts issued each cycle
system.cpu0.iq.issued_per_cycle::1          329211300     29.18%     86.46% # Number of insts issued each cycle
system.cpu0.iq.issued_per_cycle::2          120045476     10.64%     97.10% # Number of insts issued each cycle
system.cpu0.iq.issued_per_cycle::3           19883406      1.76%     98.86% # Number of insts issued each cycle
system.cpu0.iq.issued_per_cycle::4            8174713      0.72%     99.59% # Number of insts issued each cycle
system.cpu0.iq.issued_per_cycle::5            2156786      0.19%     99.78% # Number of insts issued each cycle
system.cpu0.iq.issued_per_cycle::6            1957415      0.17%     99.95% # Number of insts issued each cycle
system.cpu0.iq.issued_per_cycle::7             364147      0.03%     99.98% # Number of insts issued each cycle
system.cpu0.iq.issued_per_cycle::8             170262      0.02%    100.00% # Number of insts issued each cycle
system.cpu0.iq.issued_per_cycle::overflows            0      0.00%    100.00% # Number of insts issued each cycle
system.cpu0.iq.issued_per_cycle::min_value            0                       # Number of insts issued each cycle
system.cpu0.iq.issued_per_cycle::max_value            8                       # Number of insts issued each cycle
system.cpu0.iq.issued_per_cycle::total     1128049613                       # Number of insts issued each cycle
system.cpu0.iq.rate                          0.470758                       # Inst issue rate
system.cpu0.iq.vec_alu_accesses                     0                       # Number of vector alu accesses
system.cpu0.iq.vec_inst_queue_reads                 0                       # Number of vector instruction queue reads
system.cpu0.iq.vec_inst_queue_wakeup_accesses            0                       # Number of vector instruction queue wakeup accesses
system.cpu0.iq.vec_inst_queue_writes                0                       # Number of vector instruction queue writes
system.cpu0.itb.accesses                            0                       # DTB accesses
system.cpu0.itb.hits                                0                       # DTB hits
system.cpu0.itb.misses                              0                       # DTB misses
system.cpu0.itb.read_accesses                       0                       # DTB read accesses
system.cpu0.itb.read_hits                           0                       # DTB read hits
system.cpu0.itb.read_misses                         0                       # DTB read misses
system.cpu0.itb.write_accesses                      0                       # DTB write accesses
system.cpu0.itb.write_hits                          0                       # DTB write hits
system.cpu0.itb.write_misses                        0                       # DTB write misses
system.cpu0.memDep0.conflictingLoads         14929569                       # Number of conflicting loads.
system.cpu0.memDep0.conflictingStores         5851106                       # Number of conflicting stores.
system.cpu0.memDep0.insertedLoads           217702916                       # Number of loads inserted to the mem dependence unit.
system.cpu0.memDep0.insertedStores           91477282                       # Number of stores inserted to the mem dependence unit.
system.cpu0.misc_regfile_reads                    880                       # number of misc regfile reads
system.cpu0.misc_regfile_writes                    22                       # number of misc regfile writes
system.cpu0.numCycles                      1461667290                       # number of cpu cycles simulated
system.cpu0.numWorkItemsCompleted                   0                       # number of work items this cpu completed
system.cpu0.numWorkItemsStarted                     0                       # number of work items this cpu started
system.cpu0.quiesceCycles                    11828554                       # Total number of cycles that CPU has spent quiesced or waiting for an interrupt
system.cpu0.rename.BlockCycles              192455621                       # Number of cycles rename is blocking
system.cpu0.rename.CommittedMaps            399028617                       # Number of HB maps that are committed
system.cpu0.rename.IQFullEvents               7545368                       # Number of times rename has blocked due to IQ full
system.cpu0.rename.IdleCycles               403763669                       # Number of cycles rename is idle
system.cpu0.rename.LQFullEvents              19442222                       # Number of times rename has blocked due to LQ full
system.cpu0.rename.ROBFullEvents                18580                       # Number of times rename has blocked due to ROB full
system.cpu0.rename.RenameLookups            865485800                       # Number of register rename lookups that rename has made
system.cpu0.rename.RenamedInsts             701846539                       # Number of instructions processed by rename
system.cpu0.rename.RenamedOperands          451871132                       # Number of destination operands rename has renamed
system.cpu0.rename.RunCycles                483227699                       # Number of cycles rename is running
system.cpu0.rename.SQFullEvents              16192919                       # Number of times rename has blocked due to SQ full
system.cpu0.rename.SquashCycles               5052138                       # Number of cycles rename is squashing
system.cpu0.rename.UnblockCycles             43451848                       # Number of cycles rename is unblocking
system.cpu0.rename.UndoneMaps                52842447                       # Number of HB maps that are undone due to squashing
system.cpu0.rename.fp_rename_lookups               44                       # Number of floating rename lookups
system.cpu0.rename.int_rename_lookups       865485756                       # Number of integer rename lookups
system.cpu0.rename.serializeStallCycles         98638                       # count of cycles rename stalled for serializing inst
system.cpu0.rename.serializingInsts              2881                       # count of serializing insts renamed
system.cpu0.rename.skidInsts                 21076040                       # count of insts added to the skid buffer
system.cpu0.rename.tempSerializingInsts          2869                       # count of temporary serializing insts renamed
system.cpu0.rob.rob_reads                  1783995366                       # The number of ROB reads
system.cpu0.rob.rob_writes                 1398401264                       # The number of ROB writes
system.cpu0.timesIdled                       12815302                       # Number of times that the entire CPU went into an idle state and unscheduled itself
system.cpu0.workload.numSyscalls                  847                       # Number of system calls
system.cpu1.branchPred.BTBCorrect                   0                       # Number of correct BTB predictions (this stat may not work properly.
system.cpu1.branchPred.BTBHitPct            73.905255                       # BTB Hit Percentage
system.cpu1.branchPred.BTBHits                7290123                       # Number of BTB hits
system.cpu1.branchPred.BTBLookups             9864147                       # Number of BTB lookups
system.cpu1.branchPred.RASInCorrect                 0                       # Number of incorrect RAS predictions.
system.cpu1.branchPred.condIncorrect          1168904                       # Number of conditional branches incorrect
system.cpu1.branchPred.condPredicted         11249734                       # Number of conditional branches predicted
system.cpu1.branchPred.indirectHits            826275                       # Number of indirect target hits.
system.cpu1.branchPred.indirectLookups         972273                       # Number of indirect predictor lookups.
system.cpu1.branchPred.indirectMisses          145998                       # Number of indirect misses.
system.cpu1.branchPred.lookups               13647655                       # Number of BP lookups
system.cpu1.branchPred.usedRAS                      0                       # Number of times the RAS was used to get a target.
system.cpu1.branchPredindirectMispredicted        10129                       # Number of mispredicted indirect branches.
system.cpu1.commit.amos                       1017937                       # Number of atomic instructions committed
system.cpu1.commit.branchMispredicts           677395                       # The number of times a branch was mispredicted
system.cpu1.commit.branches                  10114547                       # Number of branches committed
system.cpu1.commit.bw_lim_events              2695640                       # number cycles where commit BW limit reached
system.cpu1.commit.commitNonSpecStalls        3054462                       # The number of times commit has been forced to stall to communicate backwards
system.cpu1.commit.commitSquashedInsts        9626171                       # The number of squashed insts skipped by commit
system.cpu1.commit.committedInsts            57389567                       # Number of instructions committed
system.cpu1.commit.committedOps              58407673                       # Number of ops (including micro ops) committed
system.cpu1.commit.committed_per_cycle::samples    239246418                       # Number of insts commited each cycle
system.cpu1.commit.committed_per_cycle::mean     0.244132                       # Number of insts commited each cycle
system.cpu1.commit.committed_per_cycle::stdev     1.059495                       # Number of insts commited each cycle
system.cpu1.commit.committed_per_cycle::underflows            0      0.00%      0.00% # Number of insts commited each cycle
system.cpu1.commit.committed_per_cycle::0    218145902     91.18%     91.18% # Number of insts commited each cycle
system.cpu1.commit.committed_per_cycle::1      9865053      4.12%     95.30% # Number of insts commited each cycle
system.cpu1.commit.committed_per_cycle::2      3734403      1.56%     96.86% # Number of insts commited each cycle
system.cpu1.commit.committed_per_cycle::3      1996401      0.83%     97.70% # Number of insts commited each cycle
system.cpu1.commit.committed_per_cycle::4      1347715      0.56%     98.26% # Number of insts commited each cycle
system.cpu1.commit.committed_per_cycle::5       834099      0.35%     98.61% # Number of insts commited each cycle
system.cpu1.commit.committed_per_cycle::6       432299      0.18%     98.79% # Number of insts commited each cycle
system.cpu1.commit.committed_per_cycle::7       194906      0.08%     98.87% # Number of insts commited each cycle
system.cpu1.commit.committed_per_cycle::8      2695640      1.13%    100.00% # Number of insts commited each cycle
system.cpu1.commit.committed_per_cycle::overflows            0      0.00%    100.00% # Number of insts commited each cycle
system.cpu1.commit.committed_per_cycle::min_value            0                       # Number of insts commited each cycle
system.cpu1.commit.committed_per_cycle::max_value            8                       # Number of insts commited each cycle
system.cpu1.commit.committed_per_cycle::total    239246418                       # Number of insts commited each cycle
system.cpu1.commit.fp_insts                        12                       # Number of committed floating point instructions.
system.cpu1.commit.function_calls             1442909                       # Number of function calls committed.
system.cpu1.commit.int_insts                 55971747                       # Number of committed integer instructions.
system.cpu1.commit.loads                     14460496                       # Number of loads committed
system.cpu1.commit.membars                    2035988                       # Number of memory barriers committed
system.cpu1.commit.op_class_0::No_OpClass      2035988      3.49%      3.49% # Class of committed instruction
system.cpu1.commit.op_class_0::IntAlu        34547054     59.15%     62.63% # Class of committed instruction
system.cpu1.commit.op_class_0::IntMult         248003      0.42%     63.06% # Class of committed instruction
system.cpu1.commit.op_class_0::IntDiv          493477      0.84%     63.90% # Class of committed instruction
system.cpu1.commit.op_class_0::FloatAdd             0      0.00%     63.90% # Class of committed instruction
system.cpu1.commit.op_class_0::FloatCmp             0      0.00%     63.90% # Class of committed instruction
system.cpu1.commit.op_class_0::FloatCvt             0      0.00%     63.90% # Class of committed instruction
system.cpu1.commit.op_class_0::FloatMult            0      0.00%     63.90% # Class of committed instruction
system.cpu1.commit.op_class_0::FloatMultAcc            0      0.00%     63.90% # Class of committed instruction
system.cpu1.commit.op_class_0::FloatDiv             0      0.00%     63.90% # Class of committed instruction
system.cpu1.commit.op_class_0::FloatMisc            0      0.00%     63.90% # Class of committed instruction
system.cpu1.commit.op_class_0::FloatSqrt            0      0.00%     63.90% # Class of committed instruction
system.cpu1.commit.op_class_0::SimdAdd              0      0.00%     63.90% # Class of committed instruction
system.cpu1.commit.op_class_0::SimdAddAcc            0      0.00%     63.90% # Class of committed instruction
system.cpu1.commit.op_class_0::SimdAlu              0      0.00%     63.90% # Class of committed instruction
system.cpu1.commit.op_class_0::SimdCmp              0      0.00%     63.90% # Class of committed instruction
system.cpu1.commit.op_class_0::SimdCvt              0      0.00%     63.90% # Class of committed instruction
system.cpu1.commit.op_class_0::SimdMisc             0      0.00%     63.90% # Class of committed instruction
system.cpu1.commit.op_class_0::SimdMult             0      0.00%     63.90% # Class of committed instruction
system.cpu1.commit.op_class_0::SimdMultAcc            0      0.00%     63.90% # Class of committed instruction
system.cpu1.commit.op_class_0::SimdShift            0      0.00%     63.90% # Class of committed instruction
system.cpu1.commit.op_class_0::SimdShiftAcc            0      0.00%     63.90% # Class of committed instruction
system.cpu1.commit.op_class_0::SimdDiv              0      0.00%     63.90% # Class of committed instruction
system.cpu1.commit.op_class_0::SimdSqrt             0      0.00%     63.90% # Class of committed instruction
system.cpu1.commit.op_class_0::SimdFloatAdd            0      0.00%     63.90% # Class of committed instruction
system.cpu1.commit.op_class_0::SimdFloatAlu            0      0.00%     63.90% # Class of committed instruction
system.cpu1.commit.op_class_0::SimdFloatCmp            0      0.00%     63.90% # Class of committed instruction
system.cpu1.commit.op_class_0::SimdFloatCvt            0      0.00%     63.90% # Class of committed instruction
system.cpu1.commit.op_class_0::SimdFloatDiv            0      0.00%     63.90% # Class of committed instruction
system.cpu1.commit.op_class_0::SimdFloatMisc            0      0.00%     63.90% # Class of committed instruction
system.cpu1.commit.op_class_0::SimdFloatMult            0      0.00%     63.90% # Class of committed instruction
system.cpu1.commit.op_class_0::SimdFloatMultAcc            0      0.00%     63.90% # Class of committed instruction
system.cpu1.commit.op_class_0::SimdFloatSqrt            0      0.00%     63.90% # Class of committed instruction
system.cpu1.commit.op_class_0::SimdReduceAdd            0      0.00%     63.90% # Class of committed instruction
system.cpu1.commit.op_class_0::SimdReduceAlu            0      0.00%     63.90% # Class of committed instruction
system.cpu1.commit.op_class_0::SimdReduceCmp            0      0.00%     63.90% # Class of committed instruction
system.cpu1.commit.op_class_0::SimdFloatReduceAdd            0      0.00%     63.90% # Class of committed instruction
system.cpu1.commit.op_class_0::SimdFloatReduceCmp            0      0.00%     63.90% # Class of committed instruction
system.cpu1.commit.op_class_0::SimdAes              0      0.00%     63.90% # Class of committed instruction
system.cpu1.commit.op_class_0::SimdAesMix            0      0.00%     63.90% # Class of committed instruction
system.cpu1.commit.op_class_0::SimdSha1Hash            0      0.00%     63.90% # Class of committed instruction
system.cpu1.commit.op_class_0::SimdSha1Hash2            0      0.00%     63.90% # Class of committed instruction
system.cpu1.commit.op_class_0::SimdSha256Hash            0      0.00%     63.90% # Class of committed instruction
system.cpu1.commit.op_class_0::SimdSha256Hash2            0      0.00%     63.90% # Class of committed instruction
system.cpu1.commit.op_class_0::SimdShaSigma2            0      0.00%     63.90% # Class of committed instruction
system.cpu1.commit.op_class_0::SimdShaSigma3            0      0.00%     63.90% # Class of committed instruction
system.cpu1.commit.op_class_0::SimdPredAlu            0      0.00%     63.90% # Class of committed instruction
system.cpu1.commit.op_class_0::MemRead       15478433     26.50%     90.40% # Class of committed instruction
system.cpu1.commit.op_class_0::MemWrite       5604706      9.60%    100.00% # Class of committed instruction
system.cpu1.commit.op_class_0::FloatMemRead            0      0.00%    100.00% # Class of committed instruction
system.cpu1.commit.op_class_0::FloatMemWrite           12      0.00%    100.00% # Class of committed instruction
system.cpu1.commit.op_class_0::IprAccess            0      0.00%    100.00% # Class of committed instruction
system.cpu1.commit.op_class_0::InstPrefetch            0      0.00%    100.00% # Class of committed instruction
system.cpu1.commit.op_class_0::total         58407673                       # Class of committed instruction
system.cpu1.commit.refs                      21083151                       # Number of memory references committed
system.cpu1.commit.swp_count                        0                       # Number of s/w prefetches committed
system.cpu1.commit.vec_insts                        0                       # Number of committed Vector instructions.
system.cpu1.committedInsts                   57389567                       # Number of Instructions Simulated
system.cpu1.committedOps                     58407673                       # Number of Ops (including micro ops) Simulated
system.cpu1.cpi                              4.211753                       # CPI: Cycles Per Instruction
system.cpu1.cpi_total                        4.211753                       # CPI: Total CPI of All Threads
system.cpu1.decode.BlockedCycles            196398484                       # Number of cycles decode is blocked
system.cpu1.decode.BranchMispred               498758                       # Number of times decode detected a branch misprediction
system.cpu1.decode.BranchResolved             6683481                       # Number of times decode resolved a branch
system.cpu1.decode.DecodedInsts              71968620                       # Number of instructions handled by decode
system.cpu1.decode.IdleCycles                 9492976                       # Number of cycles decode is idle
system.cpu1.decode.RunCycles                 31845605                       # Number of cycles decode is running
system.cpu1.decode.SquashCycles                677700                       # Number of cycles decode is squashing
system.cpu1.decode.SquashedInsts               995123                       # Number of squashed instructions handled by decode
system.cpu1.decode.UnblockCycles              2498169                       # Number of cycles decode is unblocking
system.cpu1.dtb.accesses                            0                       # DTB accesses
system.cpu1.dtb.hits                                0                       # DTB hits
system.cpu1.dtb.misses                              0                       # DTB misses
system.cpu1.dtb.read_accesses                       0                       # DTB read accesses
system.cpu1.dtb.read_hits                           0                       # DTB read hits
system.cpu1.dtb.read_misses                         0                       # DTB read misses
system.cpu1.dtb.write_accesses                      0                       # DTB write accesses
system.cpu1.dtb.write_hits                          0                       # DTB write hits
system.cpu1.dtb.write_misses                        0                       # DTB write misses
system.cpu1.fetch.Branches                   13647655                       # Number of branches that fetch encountered
system.cpu1.fetch.CacheLines                  9907793                       # Number of cache lines fetched
system.cpu1.fetch.Cycles                    228612101                       # Number of cycles fetch has run and was not squashing or blocked
system.cpu1.fetch.IcacheSquashes               109438                       # Number of outstanding Icache misses that were squashed
system.cpu1.fetch.Insts                      78099323                       # Number of instructions fetch has processed
system.cpu1.fetch.MiscStallCycles                   1                       # Number of cycles fetch has spent waiting on interrupts, or bad addresses, or out of MSHRs
system.cpu1.fetch.SquashCycles                2338418                       # Number of cycles fetch has spent squashing
system.cpu1.fetch.branchRate                 0.056463                       # Number of branch fetches per cycle
system.cpu1.fetch.icacheStallCycles          11131623                       # Number of cycles fetch is stalled on an Icache miss
system.cpu1.fetch.predictedBranches           8116398                       # Number of branches that fetch has predicted taken
system.cpu1.fetch.rate                       0.323111                       # Number of inst fetches per cycle
system.cpu1.fetch.rateDist::samples         240912934                       # Number of instructions fetched each cycle (Total)
system.cpu1.fetch.rateDist::mean             0.330128                       # Number of instructions fetched each cycle (Total)
system.cpu1.fetch.rateDist::stdev            0.795181                       # Number of instructions fetched each cycle (Total)
system.cpu1.fetch.rateDist::underflows              0      0.00%      0.00% # Number of instructions fetched each cycle (Total)
system.cpu1.fetch.rateDist::0               191134455     79.34%     79.34% # Number of instructions fetched each cycle (Total)
system.cpu1.fetch.rateDist::1                31787029     13.19%     92.53% # Number of instructions fetched each cycle (Total)
system.cpu1.fetch.rateDist::2                11397877      4.73%     97.26% # Number of instructions fetched each cycle (Total)
system.cpu1.fetch.rateDist::3                 3770206      1.56%     98.83% # Number of instructions fetched each cycle (Total)
system.cpu1.fetch.rateDist::4                  976390      0.41%     99.23% # Number of instructions fetched each cycle (Total)
system.cpu1.fetch.rateDist::5                 1349278      0.56%     99.79% # Number of instructions fetched each cycle (Total)
system.cpu1.fetch.rateDist::6                  497472      0.21%    100.00% # Number of instructions fetched each cycle (Total)
system.cpu1.fetch.rateDist::7                       8      0.00%    100.00% # Number of instructions fetched each cycle (Total)
system.cpu1.fetch.rateDist::8                     219      0.00%    100.00% # Number of instructions fetched each cycle (Total)
system.cpu1.fetch.rateDist::overflows               0      0.00%    100.00% # Number of instructions fetched each cycle (Total)
system.cpu1.fetch.rateDist::min_value               0                       # Number of instructions fetched each cycle (Total)
system.cpu1.fetch.rateDist::max_value               8                       # Number of instructions fetched each cycle (Total)
system.cpu1.fetch.rateDist::total           240912934                       # Number of instructions fetched each cycle (Total)
system.cpu1.fp_regfile_reads                       12                       # number of floating regfile reads
system.cpu1.idleCycles                         797738                       # Total number of cycles that the CPU has spent unscheduled due to idling
system.cpu1.iew.branchMispredicts              715344                       # Number of branch mispredicts detected at execute
system.cpu1.iew.exec_branches                11281393                       # Number of branches executed
system.cpu1.iew.exec_nop                            0                       # number of nop insts executed
system.cpu1.iew.exec_rate                    0.261728                       # Inst execution rate
system.cpu1.iew.exec_refs                    22428929                       # number of memory reference insts executed
system.cpu1.iew.exec_stores                   6807436                       # Number of stores executed
system.cpu1.iew.exec_swp                            0                       # number of swp insts executed
system.cpu1.iew.iewBlockCycles              163902593                       # Number of cycles IEW is blocking
system.cpu1.iew.iewDispLoadInsts             16540760                       # Number of dispatched load instructions
system.cpu1.iew.iewDispNonSpecInsts           1188210                       # Number of dispatched non-speculative instructions
system.cpu1.iew.iewDispSquashedInsts           842937                       # Number of squashed instructions skipped by dispatch
system.cpu1.iew.iewDispStoreInsts             7540901                       # Number of dispatched store instructions
system.cpu1.iew.iewDispatchedInsts           68024139                       # Number of instructions dispatched to IQ
system.cpu1.iew.iewExecLoadInsts             15621493                       # Number of load instructions executed
system.cpu1.iew.iewExecSquashedInsts           688761                       # Number of squashed instructions skipped in execute
system.cpu1.iew.iewExecutedInsts             63262563                       # Number of executed instructions
system.cpu1.iew.iewIQFullEvents                947644                       # Number of times the IQ has become full, causing a stall
system.cpu1.iew.iewIdleCycles                       0                       # Number of cycles IEW is idle
system.cpu1.iew.iewLSQFullEvents              3476118                       # Number of times the LSQ has become full, causing a stall
system.cpu1.iew.iewSquashCycles                677700                       # Number of cycles IEW is squashing
system.cpu1.iew.iewUnblockCycles              5681747                       # Number of cycles IEW is unblocking
system.cpu1.iew.lsq.thread0.blockedLoads            0                       # Number of blocked loads due to partial load-store forwarding
system.cpu1.iew.lsq.thread0.cacheBlocked        20022                       # Number of times an access to memory failed due to the cache being blocked
system.cpu1.iew.lsq.thread0.forwLoads          774850                       # Number of loads that had data forwarded from stores
system.cpu1.iew.lsq.thread0.ignoredResponses         6542                       # Number of memory responses ignored because the instruction is squashed
system.cpu1.iew.lsq.thread0.invAddrLoads            0                       # Number of loads ignored due to an invalid address
system.cpu1.iew.lsq.thread0.invAddrSwpfs            0                       # Number of software prefetches ignored due to an invalid address
system.cpu1.iew.lsq.thread0.memOrderViolation          321                       # Number of memory ordering violations
system.cpu1.iew.lsq.thread0.rescheduledLoads          334                       # Number of loads that were rescheduled
system.cpu1.iew.lsq.thread0.squashedLoads      2080264                       # Number of loads squashed
system.cpu1.iew.lsq.thread0.squashedStores       918246                       # Number of stores squashed
system.cpu1.iew.memOrderViolationEvents           321                       # Number of memory order violations
system.cpu1.iew.predictedNotTakenIncorrect        79590                       # Number of branches that were predicted not taken incorrectly
system.cpu1.iew.predictedTakenIncorrect        635754                       # Number of branches that were predicted taken incorrectly
system.cpu1.iew.wb_consumers                 37508045                       # num instructions consuming a value
system.cpu1.iew.wb_count                     62850343                       # cumulative count of insts written-back
system.cpu1.iew.wb_fanout                    0.816543                       # average fanout of values written-back
system.cpu1.iew.wb_producers                 30626920                       # num instructions producing a value
system.cpu1.iew.wb_rate                      0.260023                       # insts written-back per cycle
system.cpu1.iew.wb_sent                      62878301                       # cumulative count of insts sent to commit
system.cpu1.int_regfile_reads                80744585                       # number of integer regfile reads
system.cpu1.int_regfile_writes               44523888                       # number of integer regfile writes
system.cpu1.ipc                              0.237431                       # IPC: Instructions Per Cycle
system.cpu1.ipc_total                        0.237431                       # IPC: Total IPC of All Threads
system.cpu1.iq.FU_type_0::No_OpClass          2036088      3.18%      3.18% # Type of FU issued
system.cpu1.iq.FU_type_0::IntAlu             38605495     60.37%     63.55% # Type of FU issued
system.cpu1.iq.FU_type_0::IntMult              248046      0.39%     63.94% # Type of FU issued
system.cpu1.iq.FU_type_0::IntDiv               493612      0.77%     64.71% # Type of FU issued
system.cpu1.iq.FU_type_0::FloatAdd                  0      0.00%     64.71% # Type of FU issued
system.cpu1.iq.FU_type_0::FloatCmp                  0      0.00%     64.71% # Type of FU issued
system.cpu1.iq.FU_type_0::FloatCvt                  0      0.00%     64.71% # Type of FU issued
system.cpu1.iq.FU_type_0::FloatMult                 0      0.00%     64.71% # Type of FU issued
system.cpu1.iq.FU_type_0::FloatMultAcc              0      0.00%     64.71% # Type of FU issued
system.cpu1.iq.FU_type_0::FloatDiv                  0      0.00%     64.71% # Type of FU issued
system.cpu1.iq.FU_type_0::FloatMisc                 0      0.00%     64.71% # Type of FU issued
system.cpu1.iq.FU_type_0::FloatSqrt                 0      0.00%     64.71% # Type of FU issued
system.cpu1.iq.FU_type_0::SimdAdd                   0      0.00%     64.71% # Type of FU issued
system.cpu1.iq.FU_type_0::SimdAddAcc                0      0.00%     64.71% # Type of FU issued
system.cpu1.iq.FU_type_0::SimdAlu                   0      0.00%     64.71% # Type of FU issued
system.cpu1.iq.FU_type_0::SimdCmp                   0      0.00%     64.71% # Type of FU issued
system.cpu1.iq.FU_type_0::SimdCvt                   0      0.00%     64.71% # Type of FU issued
system.cpu1.iq.FU_type_0::SimdMisc                  0      0.00%     64.71% # Type of FU issued
system.cpu1.iq.FU_type_0::SimdMult                  0      0.00%     64.71% # Type of FU issued
system.cpu1.iq.FU_type_0::SimdMultAcc               0      0.00%     64.71% # Type of FU issued
system.cpu1.iq.FU_type_0::SimdShift                 0      0.00%     64.71% # Type of FU issued
system.cpu1.iq.FU_type_0::SimdShiftAcc              0      0.00%     64.71% # Type of FU issued
system.cpu1.iq.FU_type_0::SimdDiv                   0      0.00%     64.71% # Type of FU issued
system.cpu1.iq.FU_type_0::SimdSqrt                  0      0.00%     64.71% # Type of FU issued
system.cpu1.iq.FU_type_0::SimdFloatAdd              0      0.00%     64.71% # Type of FU issued
system.cpu1.iq.FU_type_0::SimdFloatAlu              0      0.00%     64.71% # Type of FU issued
system.cpu1.iq.FU_type_0::SimdFloatCmp              0      0.00%     64.71% # Type of FU issued
system.cpu1.iq.FU_type_0::SimdFloatCvt              0      0.00%     64.71% # Type of FU issued
system.cpu1.iq.FU_type_0::SimdFloatDiv              0      0.00%     64.71% # Type of FU issued
system.cpu1.iq.FU_type_0::SimdFloatMisc             0      0.00%     64.71% # Type of FU issued
system.cpu1.iq.FU_type_0::SimdFloatMult             0      0.00%     64.71% # Type of FU issued
system.cpu1.iq.FU_type_0::SimdFloatMultAcc            0      0.00%     64.71% # Type of FU issued
system.cpu1.iq.FU_type_0::SimdFloatSqrt             0      0.00%     64.71% # Type of FU issued
system.cpu1.iq.FU_type_0::SimdReduceAdd             0      0.00%     64.71% # Type of FU issued
system.cpu1.iq.FU_type_0::SimdReduceAlu             0      0.00%     64.71% # Type of FU issued
system.cpu1.iq.FU_type_0::SimdReduceCmp             0      0.00%     64.71% # Type of FU issued
system.cpu1.iq.FU_type_0::SimdFloatReduceAdd            0      0.00%     64.71% # Type of FU issued
system.cpu1.iq.FU_type_0::SimdFloatReduceCmp            0      0.00%     64.71% # Type of FU issued
system.cpu1.iq.FU_type_0::SimdAes                   0      0.00%     64.71% # Type of FU issued
system.cpu1.iq.FU_type_0::SimdAesMix                0      0.00%     64.71% # Type of FU issued
system.cpu1.iq.FU_type_0::SimdSha1Hash              0      0.00%     64.71% # Type of FU issued
system.cpu1.iq.FU_type_0::SimdSha1Hash2             0      0.00%     64.71% # Type of FU issued
system.cpu1.iq.FU_type_0::SimdSha256Hash            0      0.00%     64.71% # Type of FU issued
system.cpu1.iq.FU_type_0::SimdSha256Hash2            0      0.00%     64.71% # Type of FU issued
system.cpu1.iq.FU_type_0::SimdShaSigma2             0      0.00%     64.71% # Type of FU issued
system.cpu1.iq.FU_type_0::SimdShaSigma3             0      0.00%     64.71% # Type of FU issued
system.cpu1.iq.FU_type_0::SimdPredAlu               0      0.00%     64.71% # Type of FU issued
system.cpu1.iq.FU_type_0::MemRead            16755403     26.20%     90.91% # Type of FU issued
system.cpu1.iq.FU_type_0::MemWrite            5812668      9.09%    100.00% # Type of FU issued
system.cpu1.iq.FU_type_0::FloatMemRead              0      0.00%    100.00% # Type of FU issued
system.cpu1.iq.FU_type_0::FloatMemWrite            12      0.00%    100.00% # Type of FU issued
system.cpu1.iq.FU_type_0::IprAccess                 0      0.00%    100.00% # Type of FU issued
system.cpu1.iq.FU_type_0::InstPrefetch              0      0.00%    100.00% # Type of FU issued
system.cpu1.iq.FU_type_0::total              63951324                       # Type of FU issued
system.cpu1.iq.fp_alu_accesses                     16                       # Number of floating point alu accesses
system.cpu1.iq.fp_inst_queue_reads                 28                       # Number of floating instruction queue reads
system.cpu1.iq.fp_inst_queue_wakeup_accesses           12                       # Number of floating instruction queue wakeup accesses
system.cpu1.iq.fp_inst_queue_writes                12                       # Number of floating instruction queue writes
system.cpu1.iq.fu_busy_cnt                    1958656                       # FU busy when requested
system.cpu1.iq.fu_busy_rate                  0.030627                       # FU busy rate (busy events/executed inst)
system.cpu1.iq.fu_full::No_OpClass                  0      0.00%      0.00% # attempts to use FU when none available
system.cpu1.iq.fu_full::IntAlu                 271082     13.84%     13.84% # attempts to use FU when none available
system.cpu1.iq.fu_full::IntMult                  5549      0.28%     14.12% # attempts to use FU when none available
system.cpu1.iq.fu_full::IntDiv                 444224     22.68%     36.80% # attempts to use FU when none available
system.cpu1.iq.fu_full::FloatAdd                    0      0.00%     36.80% # attempts to use FU when none available
system.cpu1.iq.fu_full::FloatCmp                    0      0.00%     36.80% # attempts to use FU when none available
system.cpu1.iq.fu_full::FloatCvt                    0      0.00%     36.80% # attempts to use FU when none available
system.cpu1.iq.fu_full::FloatMult                   0      0.00%     36.80% # attempts to use FU when none available
system.cpu1.iq.fu_full::FloatMultAcc                0      0.00%     36.80% # attempts to use FU when none available
system.cpu1.iq.fu_full::FloatDiv                    0      0.00%     36.80% # attempts to use FU when none available
system.cpu1.iq.fu_full::FloatMisc                   0      0.00%     36.80% # attempts to use FU when none available
system.cpu1.iq.fu_full::FloatSqrt                   0      0.00%     36.80% # attempts to use FU when none available
system.cpu1.iq.fu_full::SimdAdd                     0      0.00%     36.80% # attempts to use FU when none available
system.cpu1.iq.fu_full::SimdAddAcc                  0      0.00%     36.80% # attempts to use FU when none available
system.cpu1.iq.fu_full::SimdAlu                     0      0.00%     36.80% # attempts to use FU when none available
system.cpu1.iq.fu_full::SimdCmp                     0      0.00%     36.80% # attempts to use FU when none available
system.cpu1.iq.fu_full::SimdCvt                     0      0.00%     36.80% # attempts to use FU when none available
system.cpu1.iq.fu_full::SimdMisc                    0      0.00%     36.80% # attempts to use FU when none available
system.cpu1.iq.fu_full::SimdMult                    0      0.00%     36.80% # attempts to use FU when none available
system.cpu1.iq.fu_full::SimdMultAcc                 0      0.00%     36.80% # attempts to use FU when none available
system.cpu1.iq.fu_full::SimdShift                   0      0.00%     36.80% # attempts to use FU when none available
system.cpu1.iq.fu_full::SimdShiftAcc                0      0.00%     36.80% # attempts to use FU when none available
system.cpu1.iq.fu_full::SimdDiv                     0      0.00%     36.80% # attempts to use FU when none available
system.cpu1.iq.fu_full::SimdSqrt                    0      0.00%     36.80% # attempts to use FU when none available
system.cpu1.iq.fu_full::SimdFloatAdd                0      0.00%     36.80% # attempts to use FU when none available
system.cpu1.iq.fu_full::SimdFloatAlu                0      0.00%     36.80% # attempts to use FU when none available
system.cpu1.iq.fu_full::SimdFloatCmp                0      0.00%     36.80% # attempts to use FU when none available
system.cpu1.iq.fu_full::SimdFloatCvt                0      0.00%     36.80% # attempts to use FU when none available
system.cpu1.iq.fu_full::SimdFloatDiv                0      0.00%     36.80% # attempts to use FU when none available
system.cpu1.iq.fu_full::SimdFloatMisc               0      0.00%     36.80% # attempts to use FU when none available
system.cpu1.iq.fu_full::SimdFloatMult               0      0.00%     36.80% # attempts to use FU when none available
system.cpu1.iq.fu_full::SimdFloatMultAcc            0      0.00%     36.80% # attempts to use FU when none available
system.cpu1.iq.fu_full::SimdFloatSqrt               0      0.00%     36.80% # attempts to use FU when none available
system.cpu1.iq.fu_full::SimdReduceAdd               0      0.00%     36.80% # attempts to use FU when none available
system.cpu1.iq.fu_full::SimdReduceAlu               0      0.00%     36.80% # attempts to use FU when none available
system.cpu1.iq.fu_full::SimdReduceCmp               0      0.00%     36.80% # attempts to use FU when none available
system.cpu1.iq.fu_full::SimdFloatReduceAdd            0      0.00%     36.80% # attempts to use FU when none available
system.cpu1.iq.fu_full::SimdFloatReduceCmp            0      0.00%     36.80% # attempts to use FU when none available
system.cpu1.iq.fu_full::SimdAes                     0      0.00%     36.80% # attempts to use FU when none available
system.cpu1.iq.fu_full::SimdAesMix                  0      0.00%     36.80% # attempts to use FU when none available
system.cpu1.iq.fu_full::SimdSha1Hash                0      0.00%     36.80% # attempts to use FU when none available
system.cpu1.iq.fu_full::SimdSha1Hash2               0      0.00%     36.80% # attempts to use FU when none available
system.cpu1.iq.fu_full::SimdSha256Hash              0      0.00%     36.80% # attempts to use FU when none available
system.cpu1.iq.fu_full::SimdSha256Hash2             0      0.00%     36.80% # attempts to use FU when none available
system.cpu1.iq.fu_full::SimdShaSigma2               0      0.00%     36.80% # attempts to use FU when none available
system.cpu1.iq.fu_full::SimdShaSigma3               0      0.00%     36.80% # attempts to use FU when none available
system.cpu1.iq.fu_full::SimdPredAlu                 0      0.00%     36.80% # attempts to use FU when none available
system.cpu1.iq.fu_full::MemRead               1077666     55.02%     91.82% # attempts to use FU when none available
system.cpu1.iq.fu_full::MemWrite               160131      8.18%    100.00% # attempts to use FU when none available
[...]
system.cpu1.dcache.WriteReq_misses::total      2662291                       # number of WriteReq misses
system.cpu1.dcache.WriteReq_miss_latency::.cpu1.data 179530783256                       # number of WriteReq miss cycles
system.cpu1.dcache.WriteReq_miss_latency::total 179530783256                       # number of WriteReq miss cycles
system.cpu1.dcache.WriteReq_accesses::.cpu1.data      9826754                       # number of WriteReq accesses(hits+misses)
system.cpu1.dcache.WriteReq_accesses::total      9826754                       # number of WriteReq accesses(hits+misses)
system.cpu1.dcache.WriteReq_miss_rate::.cpu1.data     0.270923                       # miss rate for WriteReq accesses
system.cpu1.dcache.WriteReq_miss_rate::total     0.270923                       # miss rate for WriteReq accesses
system.cpu1.dcache.WriteReq_avg_miss_latency::.cpu1.data 67434.695627                       # average WriteReq miss latency
system.cpu1.dcache.WriteReq_avg_miss_latency::total 67434.695627                       # average WriteReq miss latency
system.cpu1.dcache.WriteReq_mshr_hits::.cpu1.data      1658667                       # number of WriteReq MSHR hits
system.cpu1.dcache.WriteReq_mshr_hits::total      1658667                       # number of WriteReq MSHR hits
system.cpu1.dcache.WriteReq_mshr_misses::.cpu1.data      1003624                       # number of WriteReq MSHR misses
system.cpu1.dcache.WriteReq_mshr_misses::total      1003624                       # number of WriteReq MSHR misses
system.cpu1.dcache.WriteReq_mshr_miss_latency::.cpu1.data  78056228613                       # number of WriteReq MSHR miss cycles
system.cpu1.dcache.WriteReq_mshr_miss_latency::total  78056228613                       # number of WriteReq MSHR miss cycles
system.cpu1.dcache.WriteReq_mshr_miss_rate::.cpu1.data     0.102132                       # mshr miss rate for WriteReq accesses
system.cpu1.dcache.WriteReq_mshr_miss_rate::total     0.102132                       # mshr miss rate for WriteReq accesses
system.cpu1.dcache.WriteReq_avg_mshr_miss_latency::.cpu1.data 77774.374281                       # average WriteReq mshr miss latency
system.cpu1.dcache.WriteReq_avg_mshr_miss_latency::total 77774.374281                       # average WriteReq mshr miss latency
system.cpu1.dcache.LoadLockedReq_hits::.cpu1.data       557897                       # number of LoadLockedReq hits
system.cpu1.dcache.LoadLockedReq_hits::total       557897                       # number of LoadLockedReq hits
system.cpu1.dcache.LoadLockedReq_misses::.cpu1.data        73526                       # number of LoadLockedReq misses
system.cpu1.dcache.LoadLockedReq_misses::total        73526                       # number of LoadLockedReq misses
system.cpu1.dcache.LoadLockedReq_miss_latency::.cpu1.data   4020324000                       # number of LoadLockedReq miss cycles
system.cpu1.dcache.LoadLockedReq_miss_latency::total   4020324000                       # number of LoadLockedReq miss cycles
system.cpu1.dcache.LoadLockedReq_accesses::.cpu1.data       631423                       # number of LoadLockedReq accesses(hits+misses)
system.cpu1.dcache.LoadLockedReq_accesses::total       631423                       # number of LoadLockedReq accesses(hits+misses)
system.cpu1.dcache.LoadLockedReq_miss_rate::.cpu1.data     0.116445                       # miss rate for LoadLockedReq accesses
system.cpu1.dcache.LoadLockedReq_miss_rate::total     0.116445                       # miss rate for LoadLockedReq accesses
system.cpu1.dcache.LoadLockedReq_avg_miss_latency::.cpu1.data 54678.943503                       # average LoadLockedReq miss latency
system.cpu1.dcache.LoadLockedReq_avg_miss_latency::total 54678.943503                       # average LoadLockedReq miss latency
system.cpu1.dcache.LoadLockedReq_mshr_hits::.cpu1.data        39623                       # number of LoadLockedReq MSHR hits
system.cpu1.dcache.LoadLockedReq_mshr_hits::total        39623                       # number of LoadLockedReq MSHR hits
system.cpu1.dcache.LoadLockedReq_mshr_misses::.cpu1.data        33903                       # number of LoadLockedReq MSHR misses
system.cpu1.dcache.LoadLockedReq_mshr_misses::total        33903                       # number of LoadLockedReq MSHR misses
system.cpu1.dcache.LoadLockedReq_mshr_miss_latency::.cpu1.data   2501336500                       # number of LoadLockedReq MSHR miss cycles
system.cpu1.dcache.LoadLockedReq_mshr_miss_latency::total   2501336500                       # number of LoadLockedReq MSHR miss cycles
system.cpu1.dcache.LoadLockedReq_mshr_miss_rate::.cpu1.data     0.053693                       # mshr miss rate for LoadLockedReq accesses
system.cpu1.dcache.LoadLockedReq_mshr_miss_rate::total     0.053693                       # mshr miss rate for LoadLockedReq accesses
system.cpu1.dcache.LoadLockedReq_avg_mshr_miss_latency::.cpu1.data 73779.208330                       # average LoadLockedReq mshr miss latency
system.cpu1.dcache.LoadLockedReq_avg_mshr_miss_latency::total 73779.208330                       # average LoadLockedReq mshr miss latency
system.cpu1.dcache.StoreCondReq_hits::.cpu1.data       541682                       # number of StoreCondReq hits
system.cpu1.dcache.StoreCondReq_hits::total       541682                       # number of StoreCondReq hits
system.cpu1.dcache.StoreCondReq_misses::.cpu1.data        42516                       # number of StoreCondReq misses
system.cpu1.dcache.StoreCondReq_misses::total        42516                       # number of StoreCondReq misses
system.cpu1.dcache.StoreCondReq_miss_latency::.cpu1.data    406534500                       # number of StoreCondReq miss cycles
system.cpu1.dcache.StoreCondReq_miss_latency::total    406534500                       # number of StoreCondReq miss cycles
system.cpu1.dcache.StoreCondReq_accesses::.cpu1.data       584198                       # number of StoreCondReq accesses(hits+misses)
system.cpu1.dcache.StoreCondReq_accesses::total       584198                       # number of StoreCondReq accesses(hits+misses)
system.cpu1.dcache.StoreCondReq_miss_rate::.cpu1.data     0.072777                       # miss rate for StoreCondReq accesses
system.cpu1.dcache.StoreCondReq_miss_rate::total     0.072777                       # miss rate for StoreCondReq accesses
system.cpu1.dcache.StoreCondReq_avg_miss_latency::.cpu1.data  9561.917866                       # average StoreCondReq miss latency
system.cpu1.dcache.StoreCondReq_avg_miss_latency::total  9561.917866                       # average StoreCondReq miss latency
system.cpu1.dcache.StoreCondReq_mshr_misses::.cpu1.data        42504                       # number of StoreCondReq MSHR misses
system.cpu1.dcache.StoreCondReq_mshr_misses::total        42504                       # number of StoreCondReq MSHR misses
system.cpu1.dcache.StoreCondReq_mshr_miss_latency::.cpu1.data    364168500                       # number of StoreCondReq MSHR miss cycles
system.cpu1.dcache.StoreCondReq_mshr_miss_latency::total    364168500                       # number of StoreCondReq MSHR miss cycles
system.cpu1.dcache.StoreCondReq_mshr_miss_rate::.cpu1.data     0.072756                       # mshr miss rate for StoreCondReq accesses
system.cpu1.dcache.StoreCondReq_mshr_miss_rate::total     0.072756                       # mshr miss rate for StoreCondReq accesses
system.cpu1.dcache.StoreCondReq_avg_mshr_miss_latency::.cpu1.data  8567.864201                       # average StoreCondReq mshr miss latency
system.cpu1.dcache.StoreCondReq_avg_mshr_miss_latency::total  8567.864201                       # average StoreCondReq mshr miss latency
system.cpu1.dcache.StoreCondFailReq_miss_latency::.cpu1.data      3463000                       # number of StoreCondFailReq miss cycles
system.cpu1.dcache.StoreCondFailReq_miss_latency::total      3463000                       # number of StoreCondFailReq miss cycles
system.cpu1.dcache.StoreCondFailReq_avg_miss_latency::.cpu1.data          inf                       # average StoreCondFailReq miss latency
system.cpu1.dcache.StoreCondFailReq_avg_miss_latency::total          inf                       # average StoreCondFailReq miss latency
system.cpu1.dcache.StoreCondFailReq_mshr_miss_latency::.cpu1.data      3325000                       # number of StoreCondFailReq MSHR miss cycles
system.cpu1.dcache.StoreCondFailReq_mshr_miss_latency::total      3325000                       # number of StoreCondFailReq MSHR miss cycles
system.cpu1.dcache.StoreCondFailReq_avg_mshr_miss_latency::.cpu1.data          inf                       # average StoreCondFailReq mshr miss latency
system.cpu1.dcache.StoreCondFailReq_avg_mshr_miss_latency::total          inf                       # average StoreCondFailReq mshr miss latency
system.cpu1.dcache.SwapReq_hits::.cpu1.data       116085                       # number of SwapReq hits
system.cpu1.dcache.SwapReq_hits::total         116085                       # number of SwapReq hits
system.cpu1.dcache.SwapReq_misses::.cpu1.data        49906                       # number of SwapReq misses
system.cpu1.dcache.SwapReq_misses::total        49906                       # number of SwapReq misses
system.cpu1.dcache.SwapReq_miss_latency::.cpu1.data    804479484                       # number of SwapReq miss cycles
system.cpu1.dcache.SwapReq_miss_latency::total    804479484                       # number of SwapReq miss cycles
system.cpu1.dcache.SwapReq_accesses::.cpu1.data       165991                       # number of SwapReq accesses(hits+misses)
system.cpu1.dcache.SwapReq_accesses::total       165991                       # number of SwapReq accesses(hits+misses)
system.cpu1.dcache.SwapReq_miss_rate::.cpu1.data     0.300655                       # miss rate for SwapReq accesses
system.cpu1.dcache.SwapReq_miss_rate::total     0.300655                       # miss rate for SwapReq accesses
system.cpu1.dcache.SwapReq_avg_miss_latency::.cpu1.data 16119.895083                       # average SwapReq miss latency
system.cpu1.dcache.SwapReq_avg_miss_latency::total 16119.895083                       # average SwapReq miss latency
system.cpu1.dcache.SwapReq_mshr_hits::.cpu1.data          104                       # number of SwapReq MSHR hits
system.cpu1.dcache.SwapReq_mshr_hits::total          104                       # number of SwapReq MSHR hits
system.cpu1.dcache.SwapReq_mshr_misses::.cpu1.data        49802                       # number of SwapReq MSHR misses
system.cpu1.dcache.SwapReq_mshr_misses::total        49802                       # number of SwapReq MSHR misses
system.cpu1.dcache.SwapReq_mshr_miss_latency::.cpu1.data    750962984                       # number of SwapReq MSHR miss cycles
system.cpu1.dcache.SwapReq_mshr_miss_latency::total    750962984                       # number of SwapReq MSHR miss cycles
system.cpu1.dcache.SwapReq_mshr_miss_rate::.cpu1.data     0.300028                       # mshr miss rate for SwapReq accesses
system.cpu1.dcache.SwapReq_mshr_miss_rate::total     0.300028                       # mshr miss rate for SwapReq accesses
system.cpu1.dcache.SwapReq_avg_mshr_miss_latency::.cpu1.data 15078.972411                       # average SwapReq mshr miss latency
system.cpu1.dcache.SwapReq_avg_mshr_miss_latency::total 15078.972411                       # average SwapReq mshr miss latency
system.cpu1.dcache.tags.pwrStateResidencyTicks::UNDEFINED 681424694000                       # Cumulative time (in ticks) in various power states
system.cpu1.dcache.tags.tagsinuse           31.750019                       # Cycle average of tags in use
system.cpu1.dcache.tags.total_refs           48979947                       # Total number of references to valid blocks.
system.cpu1.dcache.tags.sampled_refs          7687688                       # Sample count of references to valid blocks.
system.cpu1.dcache.tags.avg_refs             6.371219                       # Average number of references to valid blocks.
system.cpu1.dcache.tags.warmup_cycle                0                       # Cycle when the warmup percentage was hit.
system.cpu1.dcache.tags.occ_blocks::.cpu1.data    31.750019                       # Average occupied blocks per requestor
system.cpu1.dcache.tags.occ_percent::.cpu1.data     0.992188                       # Average percentage of cache occupancy
system.cpu1.dcache.tags.occ_percent::total     0.992188                       # Average percentage of cache occupancy
system.cpu1.dcache.tags.occ_task_id_blocks::1024           30                       # Occupied blocks per task id
system.cpu1.dcache.tags.age_task_id_blocks_1024::1            4                       # Occupied blocks per task id
system.cpu1.dcache.tags.age_task_id_blocks_1024::2           26                       # Occupied blocks per task id
system.cpu1.dcache.tags.occ_task_id_percent::1024     0.937500                       # Percentage of cache occupancy per task id
system.cpu1.dcache.tags.tag_accesses        123865867                       # Number of tag accesses
system.cpu1.dcache.tags.data_accesses       123865867                       # Number of data accesses
system.cpu_clk_domain.clock                       500                       # Clock period in ticks
system.tol2bus.pwrStateResidencyTicks::UNDEFINED 681424694000                       # Cumulative time (in ticks) in various power states
system.tol2bus.trans_dist::ReadResp          21599123                       # Transaction distribution
system.tol2bus.trans_dist::WritebackDirty      9078360                       # Transaction distribution
system.tol2bus.trans_dist::WritebackClean     18402821                       # Transaction distribution
system.tol2bus.trans_dist::CleanEvict        38770676                       # Transaction distribution
system.tol2bus.trans_dist::HardPFReq         11941157                       # Transaction distribution
system.tol2bus.trans_dist::HardPFResp              11                       # Transaction distribution
system.tol2bus.trans_dist::UpgradeReq          152623                       # Transaction distribution
system.tol2bus.trans_dist::SCUpgradeReq         84280                       # Transaction distribution
system.tol2bus.trans_dist::UpgradeResp         236903                       # Transaction distribution
system.tol2bus.trans_dist::SCUpgradeFailReq          193                       # Transaction distribution
system.tol2bus.trans_dist::UpgradeFailResp          193                       # Transaction distribution
system.tol2bus.trans_dist::ReadExReq          2016500                       # Transaction distribution
system.tol2bus.trans_dist::ReadExResp         2016503                       # Transaction distribution
system.tol2bus.trans_dist::ReadCleanReq       7445588                       # Transaction distribution
system.tol2bus.trans_dist::ReadSharedReq     14153534                       # Transaction distribution
system.tol2bus.trans_dist::InvalidateReq        13880                       # Transaction distribution
system.tol2bus.trans_dist::InvalidateResp        13880                       # Transaction distribution
system.tol2bus.pkt_count_system.cpu0.icache.mem_side::system.l2.cpu_side      9566794                       # Packet count per connected master and slave (bytes)
system.tol2bus.pkt_count_system.cpu0.dcache.mem_side::system.l2.cpu_side     25332764                       # Packet count per connected master and slave (bytes)
system.tol2bus.pkt_count_system.cpu1.icache.mem_side::system.l2.cpu_side     12768059                       # Packet count per connected master and slave (bytes)
system.tol2bus.pkt_count_system.cpu1.dcache.mem_side::system.l2.cpu_side     22844851                       # Packet count per connected master and slave (bytes)
system.tol2bus.pkt_count::total              70512468                       # Packet count per connected master and slave (bytes)
system.tol2bus.pkt_size_system.cpu0.icache.mem_side::system.l2.cpu_side    408157824                       # Cumulative packet size per connected master and slave (bytes)
system.tol2bus.pkt_size_system.cpu0.dcache.mem_side::system.l2.cpu_side   1066190720                       # Cumulative packet size per connected master and slave (bytes)
system.tol2bus.pkt_size_system.cpu1.icache.mem_side::system.l2.cpu_side    544755136                       # Cumulative packet size per connected master and slave (bytes)
system.tol2bus.pkt_size_system.cpu1.dcache.mem_side::system.l2.cpu_side    960932416                       # Cumulative packet size per connected master and slave (bytes)
system.tol2bus.pkt_size::total             2980036096                       # Cumulative packet size per connected master and slave (bytes)
system.tol2bus.snoops                        55413768                       # Total snoops (count)
system.tol2bus.snoopTraffic                 290173312                       # Total snoop traffic (bytes)
system.tol2bus.snoop_fanout::samples         78727745                       # Request fanout histogram
system.tol2bus.snoop_fanout::mean            0.300348                       # Request fanout histogram
system.tol2bus.snoop_fanout::stdev           0.498433                       # Request fanout histogram
system.tol2bus.snoop_fanout::underflows             0      0.00%      0.00% # Request fanout histogram
system.tol2bus.snoop_fanout::0               56589375     71.88%     71.88% # Request fanout histogram
system.tol2bus.snoop_fanout::1               20631063     26.21%     98.09% # Request fanout histogram
system.tol2bus.snoop_fanout::2                1507225      1.91%    100.00% # Request fanout histogram
system.tol2bus.snoop_fanout::3                     82      0.00%    100.00% # Request fanout histogram
system.tol2bus.snoop_fanout::4                      0      0.00%    100.00% # Request fanout histogram
system.tol2bus.snoop_fanout::5                      0      0.00%    100.00% # Request fanout histogram
system.tol2bus.snoop_fanout::6                      0      0.00%    100.00% # Request fanout histogram
system.tol2bus.snoop_fanout::7                      0      0.00%    100.00% # Request fanout histogram
system.tol2bus.snoop_fanout::8                      0      0.00%    100.00% # Request fanout histogram
system.tol2bus.snoop_fanout::overflows              0      0.00%    100.00% # Request fanout histogram
system.tol2bus.snoop_fanout::min_value              0                       # Request fanout histogram
system.tol2bus.snoop_fanout::max_value              3                       # Request fanout histogram
system.tol2bus.snoop_fanout::total           78727745                       # Request fanout histogram
system.tol2bus.reqLayer0.occupancy        46933617614                       # Layer occupancy (ticks)
system.tol2bus.reqLayer0.utilization              6.9                       # Layer utilization (%)
system.tol2bus.respLayer1.occupancy       12809250099                       # Layer occupancy (ticks)
system.tol2bus.respLayer1.utilization             1.9                       # Layer utilization (%)
system.tol2bus.respLayer0.occupancy        4791439063                       # Layer occupancy (ticks)
system.tol2bus.respLayer0.utilization             0.7                       # Layer utilization (%)
system.tol2bus.respLayer3.occupancy       11589652247                       # Layer occupancy (ticks)
system.tol2bus.respLayer3.utilization             1.7                       # Layer utilization (%)
system.tol2bus.respLayer2.occupancy        6391174894                       # Layer occupancy (ticks)
system.tol2bus.respLayer2.utilization             0.9                       # Layer utilization (%)
system.tol2bus.snoopLayer0.occupancy            16509                       # Layer occupancy (ticks)
system.tol2bus.snoopLayer0.utilization            0.0                       # Layer utilization (%)

---------- End Simulation Statistics   ----------
