
---------- Begin Simulation Statistics ----------
final_tick                               485077076500                       # Number of ticks from beginning of simulation (restored from checkpoints and never reset)
host_inst_rate                                  98746                       # Simulator instruction rate (inst/s)
host_mem_usage                                 740100                       # Number of bytes of host memory used
host_op_rate                                    99074                       # Simulator op (including micro ops) rate (op/s)
host_seconds                                  6211.97                       # Real time elapsed on the host
host_tick_rate                               78087530                       # Simulator tick rate (ticks/s)
sim_freq                                 1000000000000                       # Frequency of simulated ticks
sim_insts                                   613408595                       # Number of instructions simulated
sim_ops                                     615447381                       # Number of ops (including micro ops) simulated
sim_seconds                                  0.485077                       # Number of seconds simulated
sim_ticks                                485077076500                       # Number of ticks simulated
system.cpu0.branchPred.BTBCorrect                   0                       # Number of correct BTB predictions (this stat may not work properly.
system.cpu0.branchPred.BTBHitPct            86.148970                       # BTB Hit Percentage
system.cpu0.branchPred.BTBHits               77410265                       # Number of BTB hits
system.cpu0.branchPred.BTBLookups            89856286                       # Number of BTB lookups
system.cpu0.branchPred.RASInCorrect                 0                       # Number of incorrect RAS predictions.
system.cpu0.branchPred.condIncorrect          6975413                       # Number of conditional branches incorrect
system.cpu0.branchPred.condPredicted        121445446                       # Number of conditional branches predicted
system.cpu0.branchPred.indirectHits          11668721                       # Number of indirect target hits.
system.cpu0.branchPred.indirectLookups       11785487                       # Number of indirect predictor lookups.
system.cpu0.branchPred.indirectMisses          116766                       # Number of indirect misses.
system.cpu0.branchPred.lookups              157364689                       # Number of BP lookups
system.cpu0.branchPred.usedRAS                      0                       # Number of times the RAS was used to get a target.
system.cpu0.branchPredindirectMispredicted      1052454                       # Number of mispredicted indirect branches.
system.cpu0.commit.amos                        509383                       # Number of atomic instructions committed
system.cpu0.commit.branchMispredicts          4828548                       # The number of times a branch was mispredicted
system.cpu0.commit.branches                 138977805                       # Number of branches committed
system.cpu0.commit.bw_lim_events             17028279                       # number cycles where commit BW limit reached
system.cpu0.commit.commitNonSpecStalls        1532331                       # The number of times commit has been forced to stall to communicate backwards
system.cpu0.commit.commitSquashedInsts       61685257                       # The number of squashed insts skipped by commit
system.cpu0.commit.committedInsts           561803515                       # Number of instructions committed
system.cpu0.commit.committedOps             562314178                       # Number of ops (including micro ops) committed
system.cpu0.commit.committed_per_cycle::samples    875452711                       # Number of insts commited each cycle
system.cpu0.commit.committed_per_cycle::mean     0.642312                       # Number of insts commited each cycle
system.cpu0.commit.committed_per_cycle::stdev     1.431423                       # Number of insts commited each cycle
system.cpu0.commit.committed_per_cycle::underflows            0      0.00%      0.00% # Number of insts commited each cycle
system.cpu0.commit.committed_per_cycle::0    609909922     69.67%     69.67% # Number of insts commited each cycle
system.cpu0.commit.committed_per_cycle::1    158906306     18.15%     87.82% # Number of insts commited each cycle
system.cpu0.commit.committed_per_cycle::2     34651004      3.96%     91.78% # Number of insts commited each cycle
system.cpu0.commit.committed_per_cycle::3     35107912      4.01%     95.79% # Number of insts commited each cycle
system.cpu0.commit.committed_per_cycle::4     12240488      1.40%     97.19% # Number of insts commited each cycle
system.cpu0.commit.committed_per_cycle::5      4333640      0.50%     97.68% # Number of insts commited each cycle
system.cpu0.commit.committed_per_cycle::6      1000376      0.11%     97.80% # Number of insts commited each cycle
system.cpu0.commit.committed_per_cycle::7      2274784      0.26%     98.05% # Number of insts commited each cycle
system.cpu0.commit.committed_per_cycle::8     17028279      1.95%    100.00% # Number of insts commited each cycle
system.cpu0.commit.committed_per_cycle::overflows            0      0.00%    100.00% # Number of insts commited each cycle
system.cpu0.commit.committed_per_cycle::min_value            0                       # Number of insts commited each cycle
system.cpu0.commit.committed_per_cycle::max_value            8                       # Number of insts commited each cycle
system.cpu0.commit.committed_per_cycle::total    875452711                       # Number of insts commited each cycle
system.cpu0.commit.fp_insts                        50                       # Number of committed floating point instructions.
system.cpu0.commit.function_calls            11672334                       # Number of function calls committed.
system.cpu0.commit.int_insts                543441697                       # Number of committed integer instructions.
system.cpu0.commit.loads                    174758048                       # Number of loads committed
system.cpu0.commit.membars                    1019944                       # Number of memory barriers committed
system.cpu0.commit.op_class_0::No_OpClass      1019950      0.18%      0.18% # Class of committed instruction
system.cpu0.commit.op_class_0::IntAlu       311063497     55.32%     55.50% # Class of committed instruction
system.cpu0.commit.op_class_0::IntMult        4137156      0.74%     56.24% # Class of committed instruction
system.cpu0.commit.op_class_0::IntDiv         1017773      0.18%     56.42% # Class of committed instruction
system.cpu0.commit.op_class_0::FloatAdd             0      0.00%     56.42% # Class of committed instruction
system.cpu0.commit.op_class_0::FloatCmp             4      0.00%     56.42% # Class of committed instruction
system.cpu0.commit.op_class_0::FloatCvt            12      0.00%     56.42% # Class of committed instruction
system.cpu0.commit.op_class_0::FloatMult            0      0.00%     56.42% # Class of committed instruction
system.cpu0.commit.op_class_0::FloatMultAcc            0      0.00%     56.42% # Class of committed instruction
system.cpu0.commit.op_class_0::FloatDiv             2      0.00%     56.42% # Class of committed instruction
system.cpu0.commit.op_class_0::FloatMisc            4      0.00%     56.42% # Class of committed instruction
system.cpu0.commit.op_class_0::FloatSqrt            0      0.00%     56.42% # Class of committed instruction
system.cpu0.commit.op_class_0::SimdAdd              0      0.00%     56.42% # Class of committed instruction
system.cpu0.commit.op_class_0::SimdAddAcc            0      0.00%     56.42% # Class of committed instruction
system.cpu0.commit.op_class_0::SimdAlu              0      0.00%     56.42% # Class of committed instruction
system.cpu0.commit.op_class_0::SimdCmp              0      0.00%     56.42% # Class of committed instruction
system.cpu0.commit.op_class_0::SimdCvt              0      0.00%     56.42% # Class of committed instruction
system.cpu0.commit.op_class_0::SimdMisc             0      0.00%     56.42% # Class of committed instruction
system.cpu0.commit.op_class_0::SimdMult             0      0.00%     56.42% # Class of committed instruction
system.cpu0.commit.op_class_0::SimdMultAcc            0      0.00%     56.42% # Class of committed instruction
system.cpu0.commit.op_class_0::SimdShift            0      0.00%     56.42% # Class of committed instruction
system.cpu0.commit.op_class_0::SimdShiftAcc            0      0.00%     56.42% # Class of committed instruction
system.cpu0.commit.op_class_0::SimdDiv              0      0.00%     56.42% # Class of committed instruction
system.cpu0.commit.op_class_0::SimdSqrt             0      0.00%     56.42% # Class of committed instruction
system.cpu0.commit.op_class_0::SimdFloatAdd            0      0.00%     56.42% # Class of committed instruction
system.cpu0.commit.op_class_0::SimdFloatAlu            0      0.00%     56.42% # Class of committed instruction
system.cpu0.commit.op_class_0::SimdFloatCmp            0      0.00%     56.42% # Class of committed instruction
system.cpu0.commit.op_class_0::SimdFloatCvt            0      0.00%     56.42% # Class of committed instruction
system.cpu0.commit.op_class_0::SimdFloatDiv            0      0.00%     56.42% # Class of committed instruction
system.cpu0.commit.op_class_0::SimdFloatMisc            0      0.00%     56.42% # Class of committed instruction
system.cpu0.commit.op_class_0::SimdFloatMult            0      0.00%     56.42% # Class of committed instruction
system.cpu0.commit.op_class_0::SimdFloatMultAcc            0      0.00%     56.42% # Class of committed instruction
system.cpu0.commit.op_class_0::SimdFloatSqrt            0      0.00%     56.42% # Class of committed instruction
system.cpu0.commit.op_class_0::SimdReduceAdd            0      0.00%     56.42% # Class of committed instruction
system.cpu0.commit.op_class_0::SimdReduceAlu            0      0.00%     56.42% # Class of committed instruction
system.cpu0.commit.op_class_0::SimdReduceCmp            0      0.00%     56.42% # Class of committed instruction
system.cpu0.commit.op_class_0::SimdFloatReduceAdd            0      0.00%     56.42% # Class of committed instruction
system.cpu0.commit.op_class_0::SimdFloatReduceCmp            0      0.00%     56.42% # Class of committed instruction
system.cpu0.commit.op_class_0::SimdAes              0      0.00%     56.42% # Class of committed instruction
system.cpu0.commit.op_class_0::SimdAesMix            0      0.00%     56.42% # Class of committed instruction
system.cpu0.commit.op_class_0::SimdSha1Hash            0      0.00%     56.42% # Class of committed instruction
system.cpu0.commit.op_class_0::SimdSha1Hash2            0      0.00%     56.42% # Class of committed instruction
system.cpu0.commit.op_class_0::SimdSha256Hash            0      0.00%     56.42% # Class of committed instruction
system.cpu0.commit.op_class_0::SimdSha256Hash2            0      0.00%     56.42% # Class of committed instruction
system.cpu0.commit.op_class_0::SimdShaSigma2            0      0.00%     56.42% # Class of committed instruction
system.cpu0.commit.op_class_0::SimdShaSigma3            0      0.00%     56.42% # Class of committed instruction
system.cpu0.commit.op_class_0::SimdPredAlu            0      0.00%     56.42% # Class of committed instruction
system.cpu0.commit.op_class_0::MemRead      175267423     31.17%     87.59% # Class of committed instruction
system.cpu0.commit.op_class_0::MemWrite      69808329     12.41%    100.00% # Class of committed instruction
system.cpu0.commit.op_class_0::FloatMemRead            8      0.00%    100.00% # Class of committed instruction
system.cpu0.commit.op_class_0::FloatMemWrite           20      0.00%    100.00% # Class of committed instruction
system.cpu0.commit.op_class_0::IprAccess            0      0.00%    100.00% # Class of committed instruction
system.cpu0.commit.op_class_0::InstPrefetch            0      0.00%    100.00% # Class of committed instruction
system.cpu0.commit.op_class_0::total        562314178                       # Class of committed instruction
system.cpu0.commit.refs                     245075780                       # Number of memory references committed
system.cpu0.commit.swp_count                        0                       # Number of s/w prefetches committed
system.cpu0.commit.vec_insts                        0                       # Number of committed Vector instructions.
system.cpu0.committedInsts                  561803515                       # Number of Instructions Simulated
system.cpu0.committedOps                    562314178                       # Number of Ops (including micro ops) Simulated
system.cpu0.cpi                              1.702889                       # CPI: Cycles Per Instruction
system.cpu0.cpi_total                        1.702889                       # CPI: Total CPI of All Threads
system.cpu0.decode.BlockedCycles             94570973                       # Number of cycles decode is blocked
system.cpu0.decode.BranchMispred              2151507                       # Number of times decode detected a branch misprediction
system.cpu0.decode.BranchResolved            75373637                       # Number of times decode resolved a branch
system.cpu0.decode.DecodedInsts             636179671                       # Number of instructions handled by decode
system.cpu0.decode.IdleCycles               345647500                       # Number of cycles decode is idle
system.cpu0.decode.RunCycles                438621019                       # Number of cycles decode is running
system.cpu0.decode.SquashCycles               4833417                       # Number of cycles decode is squashing
system.cpu0.decode.SquashedInsts              8659658                       # Number of squashed instructions handled by decode
system.cpu0.decode.UnblockCycles              2537769                       # Number of cycles decode is unblocking
system.cpu0.dtb.accesses                            0                       # DTB accesses
system.cpu0.dtb.hits                                0                       # DTB hits
system.cpu0.dtb.misses                              0                       # DTB misses
system.cpu0.dtb.read_accesses                       0                       # DTB read accesses
system.cpu0.dtb.read_hits                           0                       # DTB read hits
system.cpu0.dtb.read_misses                         0                       # DTB read misses
system.cpu0.dtb.write_accesses                      0                       # DTB write accesses
system.cpu0.dtb.write_hits                          0                       # DTB write hits
system.cpu0.dtb.write_misses                        0                       # DTB write misses
system.cpu0.fetch.Branches                  157364689                       # Number of branches that fetch encountered
system.cpu0.fetch.CacheLines                102211167                       # Number of cache lines fetched
system.cpu0.fetch.Cycles                    541165493                       # Number of cycles fetch has run and was not squashing or blocked
system.cpu0.fetch.IcacheSquashes              2373209                       # Number of outstanding Icache misses that were squashed
system.cpu0.fetch.IcacheWaitRetryStallCycles          117                       # Number of stall cycles due to full MSHR
system.cpu0.fetch.Insts                     657234512                       # Number of instructions fetch has processed
system.cpu0.fetch.MiscStallCycles                  20                       # Number of cycles fetch has spent waiting on interrupts, or bad addresses, or out of MSHRs
system.cpu0.fetch.PendingTrapStallCycles           73                       # Number of stall cycles due to pending traps
system.cpu0.fetch.SquashCycles               13960582                       # Number of cycles fetch has spent squashing
system.cpu0.fetch.branchRate                 0.164489                       # Number of branch fetches per cycle
system.cpu0.fetch.icacheStallCycles         338064684                       # Number of cycles fetch is stalled on an Icache miss
system.cpu0.fetch.predictedBranches          89078986                       # Number of branches that fetch has predicted taken
system.cpu0.fetch.rate                       0.686989                       # Number of inst fetches per cycle
system.cpu0.fetch.rateDist::samples         886210678                       # Number of instructions fetched each cycle (Total)
system.cpu0.fetch.rateDist::mean             0.743184                       # Number of instructions fetched each cycle (Total)
system.cpu0.fetch.rateDist::stdev            0.950741                       # Number of instructions fetched each cycle (Total)
system.cpu0.fetch.rateDist::underflows              0      0.00%      0.00% # Number of instructions fetched each cycle (Total)
system.cpu0.fetch.rateDist::0               428248338     48.32%     48.32% # Number of instructions fetched each cycle (Total)
system.cpu0.fetch.rateDist::1               337110083     38.04%     86.36% # Number of instructions fetched each cycle (Total)
system.cpu0.fetch.rateDist::2                62657340      7.07%     93.43% # Number of instructions fetched each cycle (Total)
system.cpu0.fetch.rateDist::3                43829711      4.95%     98.38% # Number of instructions fetched each cycle (Total)
system.cpu0.fetch.rateDist::4                10704340      1.21%     99.59% # Number of instructions fetched each cycle (Total)
system.cpu0.fetch.rateDist::5                 2120173      0.24%     99.83% # Number of instructions fetched each cycle (Total)
system.cpu0.fetch.rateDist::6                  519682      0.06%     99.88% # Number of instructions fetched each cycle (Total)
system.cpu0.fetch.rateDist::7                     462      0.00%     99.88% # Number of instructions fetched each cycle (Total)
system.cpu0.fetch.rateDist::8                 1020549      0.12%    100.00% # Number of instructions fetched each cycle (Total)
system.cpu0.fetch.rateDist::overflows               0      0.00%    100.00% # Number of instructions fetched each cycle (Total)
system.cpu0.fetch.rateDist::min_value               0                       # Number of instructions fetched each cycle (Total)
system.cpu0.fetch.rateDist::max_value               8                       # Number of instructions fetched each cycle (Total)
system.cpu0.fetch.rateDist::total           886210678                       # Number of instructions fetched each cycle (Total)
system.cpu0.fp_regfile_reads                       44                       # number of floating regfile reads
system.cpu0.fp_regfile_writes                      24                       # number of floating regfile writes
system.cpu0.idleCycles                       70478076                       # Total number of cycles that the CPU has spent unscheduled due to idling
system.cpu0.iew.branchMispredicts             4936701                       # Number of branch mispredicts detected at execute
system.cpu0.iew.exec_branches               147029066                       # Number of branches executed
system.cpu0.iew.exec_nop                            0                       # number of nop insts executed
system.cpu0.iew.exec_rate                    0.639741                       # Inst execution rate
system.cpu0.iew.exec_refs                   274850696                       # number of memory reference insts executed
system.cpu0.iew.exec_stores                  77303685                       # Number of stores executed
system.cpu0.iew.exec_swp                            0                       # number of swp insts executed
system.cpu0.iew.iewBlockCycles               78087967                       # Number of cycles IEW is blocking
system.cpu0.iew.iewDispLoadInsts            199704944                       # Number of dispatched load instructions
system.cpu0.iew.iewDispNonSpecInsts           1015452                       # Number of dispatched non-speculative instructions
system.cpu0.iew.iewDispSquashedInsts          2328855                       # Number of squashed instructions skipped by dispatch
system.cpu0.iew.iewDispStoreInsts            79279827                       # Number of dispatched store instructions
system.cpu0.iew.iewDispatchedInsts          623986566                       # Number of instructions dispatched to IQ
system.cpu0.iew.iewExecLoadInsts            197547011                       # Number of load instructions executed
system.cpu0.iew.iewExecSquashedInsts          3910988                       # Number of squashed instructions skipped in execute
system.cpu0.iew.iewExecutedInsts            612032652                       # Number of executed instructions
system.cpu0.iew.iewIQFullEvents                527243                       # Number of times the IQ has become full, causing a stall
system.cpu0.iew.iewIdleCycles                       0                       # Number of cycles IEW is idle
system.cpu0.iew.iewLSQFullEvents              1817116                       # Number of times the LSQ has become full, causing a stall
system.cpu0.iew.iewSquashCycles               4833417                       # Number of cycles IEW is squashing
system.cpu0.iew.iewUnblockCycles              2915718                       # Number of cycles IEW is unblocking
system.cpu0.iew.lsq.thread0.blockedLoads            0                       # Number of blocked loads due to partial load-store forwarding
system.cpu0.iew.lsq.thread0.cacheBlocked        64638                       # Number of times an access to memory failed due to the cache being blocked
system.cpu0.iew.lsq.thread0.forwLoads         9127915                       # Number of loads that had data forwarded from stores
system.cpu0.iew.lsq.thread0.ignoredResponses        30114                       # Number of memory responses ignored because the instruction is squashed
system.cpu0.iew.lsq.thread0.invAddrLoads            0                       # Number of loads ignored due to an invalid address
system.cpu0.iew.lsq.thread0.invAddrSwpfs            0                       # Number of software prefetches ignored due to an invalid address
system.cpu0.iew.lsq.thread0.memOrderViolation         4989                       # Number of memory ordering violations
system.cpu0.iew.lsq.thread0.rescheduledLoads      3527443                       # Number of loads that were rescheduled
system.cpu0.iew.lsq.thread0.squashedLoads     24946896                       # Number of loads squashed
system.cpu0.iew.lsq.thread0.squashedStores      8962095                       # Number of stores squashed
system.cpu0.iew.memOrderViolationEvents          4989                       # Number of memory order violations
system.cpu0.iew.predictedNotTakenIncorrect       821462                       # Number of branches that were predicted not taken incorrectly
system.cpu0.iew.predictedTakenIncorrect       4115239                       # Number of branches that were predicted taken incorrectly
system.cpu0.iew.wb_consumers                271351053                       # num instructions consuming a value
system.cpu0.iew.wb_count                    605578625                       # cumulative count of insts written-back
system.cpu0.iew.wb_fanout                    0.837805                       # average fanout of values written-back
system.cpu0.iew.wb_producers                227339256                       # num instructions producing a value
system.cpu0.iew.wb_rate                      0.632994                       # insts written-back per cycle
system.cpu0.iew.wb_sent                     605703731                       # cumulative count of insts sent to commit
system.cpu0.int_regfile_reads               745169030                       # number of integer regfile reads
system.cpu0.int_regfile_writes              386953834                       # number of integer regfile writes
system.cpu0.ipc                              0.587238                       # IPC: Instructions Per Cycle
system.cpu0.ipc_total                        0.587238                       # IPC: Total IPC of All Threads
system.cpu0.iq.FU_type_0::No_OpClass          1020960      0.17%      0.17% # Type of FU issued
system.cpu0.iq.FU_type_0::IntAlu            333188399     54.09%     54.26% # Type of FU issued
system.cpu0.iq.FU_type_0::IntMult             4213159      0.68%     54.94% # Type of FU issued
system.cpu0.iq.FU_type_0::IntDiv              1018061      0.17%     55.11% # Type of FU issued
system.cpu0.iq.FU_type_0::FloatAdd                  0      0.00%     55.11% # Type of FU issued
system.cpu0.iq.FU_type_0::FloatCmp                  4      0.00%     55.11% # Type of FU issued
system.cpu0.iq.FU_type_0::FloatCvt                 12      0.00%     55.11% # Type of FU issued
system.cpu0.iq.FU_type_0::FloatMult                 0      0.00%     55.11% # Type of FU issued
system.cpu0.iq.FU_type_0::FloatMultAcc              0      0.00%     55.11% # Type of FU issued
system.cpu0.iq.FU_type_0::FloatDiv                  2      0.00%     55.11% # Type of FU issued
system.cpu0.iq.FU_type_0::FloatMisc                 4      0.00%     55.11% # Type of FU issued
system.cpu0.iq.FU_type_0::FloatSqrt                 0      0.00%     55.11% # Type of FU issued
system.cpu0.iq.FU_type_0::SimdAdd                   0      0.00%     55.11% # Type of FU issued
system.cpu0.iq.FU_type_0::SimdAddAcc                0      0.00%     55.11% # Type of FU issued
system.cpu0.iq.FU_type_0::SimdAlu                   0      0.00%     55.11% # Type of FU issued
system.cpu0.iq.FU_type_0::SimdCmp                   0      0.00%     55.11% # Type of FU issued
system.cpu0.iq.FU_type_0::SimdCvt                   0      0.00%     55.11% # Type of FU issued
system.cpu0.iq.FU_type_0::SimdMisc                  0      0.00%     55.11% # Type of FU issued
system.cpu0.iq.FU_type_0::SimdMult                  0      0.00%     55.11% # Type of FU issued
system.cpu0.iq.FU_type_0::SimdMultAcc               0      0.00%     55.11% # Type of FU issued
system.cpu0.iq.FU_type_0::SimdShift                 0      0.00%     55.11% # Type of FU issued
system.cpu0.iq.FU_type_0::SimdShiftAcc              0      0.00%     55.11% # Type of FU issued
system.cpu0.iq.FU_type_0::SimdDiv                   0      0.00%     55.11% # Type of FU issued
system.cpu0.iq.FU_type_0::SimdSqrt                  0      0.00%     55.11% # Type of FU issued
system.cpu0.iq.FU_type_0::SimdFloatAdd              0      0.00%     55.11% # Type of FU issued
system.cpu0.iq.FU_type_0::SimdFloatAlu              0      0.00%     55.11% # Type of FU issued
system.cpu0.iq.FU_type_0::SimdFloatCmp              0      0.00%     55.11% # Type of FU issued
system.cpu0.iq.FU_type_0::SimdFloatCvt              0      0.00%     55.11% # Type of FU issued
system.cpu0.iq.FU_type_0::SimdFloatDiv              0      0.00%     55.11% # Type of FU issued
system.cpu0.iq.FU_type_0::SimdFloatMisc             0      0.00%     55.11% # Type of FU issued
system.cpu0.iq.FU_type_0::SimdFloatMult             0      0.00%     55.11% # Type of FU issued
system.cpu0.iq.FU_type_0::SimdFloatMultAcc            0      0.00%     55.11% # Type of FU issued
system.cpu0.iq.FU_type_0::SimdFloatSqrt             0      0.00%     55.11% # Type of FU issued
system.cpu0.iq.FU_type_0::SimdReduceAdd             0      0.00%     55.11% # Type of FU issued
system.cpu0.iq.FU_type_0::SimdReduceAlu             0      0.00%     55.11% # Type of FU issued
system.cpu0.iq.FU_type_0::SimdReduceCmp             0      0.00%     55.11% # Type of FU issued
system.cpu0.iq.FU_type_0::SimdFloatReduceAdd            0      0.00%     55.11% # Type of FU issued
system.cpu0.iq.FU_type_0::SimdFloatReduceCmp            0      0.00%     55.11% # Type of FU issued
system.cpu0.iq.FU_type_0::SimdAes                   0      0.00%     55.11% # Type of FU issued
system.cpu0.iq.FU_type_0::SimdAesMix                0      0.00%     55.11% # Type of FU issued
system.cpu0.iq.FU_type_0::SimdSha1Hash              0      0.00%     55.11% # Type of FU issued
system.cpu0.iq.FU_type_0::SimdSha1Hash2             0      0.00%     55.11% # Type of FU issued
system.cpu0.iq.FU_type_0::SimdSha256Hash            0      0.00%     55.11% # Type of FU issued
system.cpu0.iq.FU_type_0::SimdSha256Hash2            0      0.00%     55.11% # Type of FU issued
system.cpu0.iq.FU_type_0::SimdShaSigma2             0      0.00%     55.11% # Type of FU issued
system.cpu0.iq.FU_type_0::SimdShaSigma3             0      0.00%     55.11% # Type of FU issued
system.cpu0.iq.FU_type_0::SimdPredAlu               0      0.00%     55.11% # Type of FU issued
system.cpu0.iq.FU_type_0::MemRead           199339514     32.36%     87.47% # Type of FU issued
system.cpu0.iq.FU_type_0::MemWrite           77163495     12.53%    100.00% # Type of FU issued
system.cpu0.iq.FU_type_0::FloatMemRead             10      0.00%    100.00% # Type of FU issued
system.cpu0.iq.FU_type_0::FloatMemWrite            20      0.00%    100.00% # Type of FU issued
system.cpu0.iq.FU_type_0::IprAccess                 0      0.00%    100.00% # Type of FU issued
system.cpu0.iq.FU_type_0::InstPrefetch              0      0.00%    100.00% # Type of FU issued
system.cpu0.iq.FU_type_0::total             615943640                       # Type of FU issued
system.cpu0.iq.fp_alu_accesses                     56                       # Number of floating point alu accesses
system.cpu0.iq.fp_inst_queue_reads                108                       # Number of floating instruction queue reads
system.cpu0.iq.fp_inst_queue_wakeup_accesses           52                       # Number of floating instruction queue wakeup accesses
system.cpu0.iq.fp_inst_queue_writes                54                       # Number of floating instruction queue writes
system.cpu0.iq.fu_busy_cnt                     680044                       # FU busy when requested
system.cpu0.iq.fu_busy_rate                  0.001104                       # FU busy rate (busy events/executed inst)
system.cpu0.iq.fu_full::No_OpClass                  0      0.00%      0.00% # attempts to use FU when none available
system.cpu0.iq.fu_full::IntAlu                 106664     15.68%     15.68% # attempts to use FU when none available
system.cpu0.iq.fu_full::IntMult                     1      0.00%     15.69% # attempts to use FU when none available
system.cpu0.iq.fu_full::IntDiv                      0      0.00%     15.69% # attempts to use FU when none available
system.cpu0.iq.fu_full::FloatAdd                    0      0.00%     15.69% # attempts to use FU when none available
system.cpu0.iq.fu_full::FloatCmp                    0      0.00%     15.69% # attempts to use FU when none available
system.cpu0.iq.fu_full::FloatCvt                    0      0.00%     15.69% # attempts to use FU when none available
system.cpu0.iq.fu_full::FloatMult                   0      0.00%     15.69% # attempts to use FU when none available
system.cpu0.iq.fu_full::FloatMultAcc                0      0.00%     15.69% # attempts to use FU when none available
system.cpu0.iq.fu_full::FloatDiv                    0      0.00%     15.69% # attempts to use FU when none available
system.cpu0.iq.fu_full::FloatMisc                   0      0.00%     15.69% # attempts to use FU when none available
system.cpu0.iq.fu_full::FloatSqrt                   0      0.00%     15.69% # attempts to use FU when none available
system.cpu0.iq.fu_full::SimdAdd                     0      0.00%     15.69% # attempts to use FU when none available
system.cpu0.iq.fu_full::SimdAddAcc                  0      0.00%     15.69% # attempts to use FU when none available
system.cpu0.iq.fu_full::SimdAlu                     0      0.00%     15.69% # attempts to use FU when none available
system.cpu0.iq.fu_full::SimdCmp                     0      0.00%     15.69% # attempts to use FU when none available
system.cpu0.iq.fu_full::SimdCvt                     0      0.00%     15.69% # attempts to use FU when none available
system.cpu0.iq.fu_full::SimdMisc                    0      0.00%     15.69% # attempts to use FU when none available
system.cpu0.iq.fu_full::SimdMult                    0      0.00%     15.69% # attempts to use FU when none available
system.cpu0.iq.fu_full::SimdMultAcc                 0      0.00%     15.69% # attempts to use FU when none available
system.cpu0.iq.fu_full::SimdShift                   0      0.00%     15.69% # attempts to use FU when none available
system.cpu0.iq.fu_full::SimdShiftAcc                0      0.00%     15.69% # attempts to use FU when none available
system.cpu0.iq.fu_full::SimdDiv                     0      0.00%     15.69% # attempts to use FU when none available
system.cpu0.iq.fu_full::SimdSqrt                    0      0.00%     15.69% # attempts to use FU when none available
system.cpu0.iq.fu_full::SimdFloatAdd                0      0.00%     15.69% # attempts to use FU when none available
system.cpu0.iq.fu_full::SimdFloatAlu                0      0.00%     15.69% # attempts to use FU when none available
system.cpu0.iq.fu_full::SimdFloatCmp                0      0.00%     15.69% # attempts to use FU when none available
system.cpu0.iq.fu_full::SimdFloatCvt                0      0.00%     15.69% # attempts to use FU when none available
system.cpu0.iq.fu_full::SimdFloatDiv                0      0.00%     15.69% # attempts to use FU when none available
system.cpu0.iq.fu_full::SimdFloatMisc               0      0.00%     15.69% # attempts to use FU when none available
system.cpu0.iq.fu_full::SimdFloatMult               0      0.00%     15.69% # attempts to use FU when none available
system.cpu0.iq.fu_full::SimdFloatMultAcc            0      0.00%     15.69% # attempts to use FU when none available
system.cpu0.iq.fu_full::SimdFloatSqrt               0      0.00%     15.69% # attempts to use FU when none available
system.cpu0.iq.fu_full::SimdReduceAdd               0      0.00%     15.69% # attempts to use FU when none available
system.cpu0.iq.fu_full::SimdReduceAlu               0      0.00%     15.69% # attempts to use FU when none available
system.cpu0.iq.fu_full::SimdReduceCmp               0      0.00%     15.69% # attempts to use FU when none available
system.cpu0.iq.fu_full::SimdFloatReduceAdd            0      0.00%     15.69% # attempts to use FU when none available
system.cpu0.iq.fu_full::SimdFloatReduceCmp            0      0.00%     15.69% # attempts to use FU when none available
system.cpu0.iq.fu_full::SimdAes                     0      0.00%     15.69% # attempts to use FU when none available
system.cpu0.iq.fu_full::SimdAesMix                  0      0.00%     15.69% # attempts to use FU when none available
system.cpu0.iq.fu_full::SimdSha1Hash                0      0.00%     15.69% # attempts to use FU when none available
system.cpu0.iq.fu_full::SimdSha1Hash2               0      0.00%     15.69% # attempts to use FU when none available
system.cpu0.iq.fu_full::SimdSha256Hash              0      0.00%     15.69% # attempts to use FU when none available
system.cpu0.iq.fu_full::SimdSha256Hash2             0      0.00%     15.69% # attempts to use FU when none available
system.cpu0.iq.fu_full::SimdShaSigma2               0      0.00%     15.69% # attempts to use FU when none available
system.cpu0.iq.fu_full::SimdShaSigma3               0      0.00%     15.69% # attempts to use FU when none available
system.cpu0.iq.fu_full::SimdPredAlu                 0      0.00%     15.69% # attempts to use FU when none available
system.cpu0.iq.fu_full::MemRead                497814     73.20%     88.89% # attempts to use FU when none available
system.cpu0.iq.fu_full::MemWrite                75561     11.11%    100.00% # attempts to use FU when none available
system.cpu0.iq.fu_full::FloatMemRead                0      0.00%    100.00% # attempts to use FU when none available
system.cpu0.iq.fu_full::FloatMemWrite               4      0.00%    100.00% # attempts to use FU when none available
system.cpu0.iq.fu_full::IprAccess                   0      0.00%    100.00% # attempts to use FU when none available
system.cpu0.iq.fu_full::InstPrefetch                0      0.00%    100.00% # attempts to use FU when none available
system.cpu0.iq.int_alu_accesses             615602668                       # Number of integer alu accesses
system.cpu0.iq.int_inst_queue_reads        2118825369                       # Number of integer instruction queue reads
system.cpu0.iq.int_inst_queue_wakeup_accesses    605578573                       # Number of integer instruction queue wakeup accesses
system.cpu0.iq.int_inst_queue_writes        685663237                       # Number of integer instruction queue writes
system.cpu0.iq.iqInstsAdded                 620945319                       # Number of instructions added to the IQ (excludes non-spec)
system.cpu0.iq.iqInstsIssued                615943640                       # Number of instructions issued
system.cpu0.iq.iqNonSpecInstsAdded            3041247                       # Number of non-speculative instructions added to the IQ
system.cpu0.iq.iqSquashedInstsExamined       61672385                       # Number of squashed instructions iterated over during squash; mainly for profiling
system.cpu0.iq.iqSquashedInstsIssued            47475                       # Number of squashed instructions issued
system.cpu0.iq.iqSquashedNonSpecRemoved       1508916                       # Number of squashed non-spec instructions that were removed
system.cpu0.iq.iqSquashedOperandsExamined     18455506                       # Number of squashed operands that are examined and possibly removed from graph
system.cpu0.iq.issued_per_cycle::samples    886210678                       # Number of insts issued each cycle
system.cpu0.iq.issued_per_cycle::mean        0.695031                       # Number of insts issued each cycle
system.cpu0.iq.issued_per_cycle::stdev       0.869107                       # Number of insts issued each cycle
system.cpu0.iq.issued_per_cycle::underflows            0      0.00%      0.00% # Number of insts issued each cycle
system.cpu0.iq.issued_per_cycle::0          457263227     51.60%     51.60% # Number of insts issued each cycle
system.cpu0.iq.issued_per_cycle::1          286689474     32.35%     83.95% # Number of insts issued each cycle
system.cpu0.iq.issued_per_cycle::2          104814337     11.83%     95.77% # Number of insts issued each cycle
system.cpu0.iq.issued_per_cycle::3           31240398      3.53%     99.30% # Number of insts issued each cycle
system.cpu0.iq.issued_per_cycle::4            5583724      0.63%     99.93% # Number of insts issued each cycle
system.cpu0.iq.issued_per_cycle::5             289755      0.03%     99.96% # Number of insts issued each cycle
system.cpu0.iq.issued_per_cycle::6             229593      0.03%     99.99% # Number of insts issued each cycle
system.cpu0.iq.issued_per_cycle::7              58291      0.01%    100.00% # Number of insts issued each cycle
system.cpu0.iq.issued_per_cycle::8              41879      0.00%    100.00% # Number of insts issued each cycle
system.cpu0.iq.issued_per_cycle::overflows            0      0.00%    100.00% # Number of insts issued each cycle
system.cpu0.iq.issued_per_cycle::min_value            0                       # Number of insts issued each cycle
system.cpu0.iq.issued_per_cycle::max_value            8                       # Number of insts issued each cycle
system.cpu0.iq.issued_per_cycle::total      886210678                       # Number of insts issued each cycle
system.cpu0.iq.rate                          0.643829                       # Inst issue rate
system.cpu0.iq.vec_alu_accesses                     0                       # Number of vector alu accesses
system.cpu0.iq.vec_inst_queue_reads                 0                       # Number of vector instruction queue reads
system.cpu0.iq.vec_inst_queue_wakeup_accesses            0                       # Number of vector instruction queue wakeup accesses
system.cpu0.iq.vec_inst_queue_writes                0                       # Number of vector instruction queue writes
system.cpu0.itb.accesses                            0                       # DTB accesses
system.cpu0.itb.hits                                0                       # DTB hits
system.cpu0.itb.misses                              0                       # DTB misses
system.cpu0.itb.read_accesses                       0                       # DTB read accesses
system.cpu0.itb.read_hits                           0                       # DTB read hits
system.cpu0.itb.read_misses                         0                       # DTB read misses
system.cpu0.itb.write_accesses                      0                       # DTB write accesses
system.cpu0.itb.write_hits                          0                       # DTB write hits
system.cpu0.itb.write_misses                        0                       # DTB write misses
system.cpu0.memDep0.conflictingLoads          9862354                       # Number of conflicting loads.
system.cpu0.memDep0.conflictingStores         1821168                       # Number of conflicting stores.
system.cpu0.memDep0.insertedLoads           199704944                       # Number of loads inserted to the mem dependence unit.
system.cpu0.memDep0.insertedStores           79279827                       # Number of stores inserted to the mem dependence unit.
system.cpu0.misc_regfile_reads                   1028                       # number of misc regfile reads
system.cpu0.misc_regfile_writes                    22                       # number of misc regfile writes
system.cpu0.numCycles                       956688754                       # number of cpu cycles simulated
system.cpu0.numWorkItemsCompleted                   0                       # number of work items this cpu completed
system.cpu0.numWorkItemsStarted                     0                       # number of work items this cpu started
system.cpu0.quiesceCycles                    13465401                       # Total number of cycles that CPU has spent quiesced or waiting for an interrupt
system.cpu0.rename.BlockCycles               84442844                       # Number of cycles rename is blocking
system.cpu0.rename.CommittedMaps            357827353                       # Number of HB maps that are committed
system.cpu0.rename.IQFullEvents               3160991                       # Number of times rename has blocked due to IQ full
system.cpu0.rename.IdleCycles               350285601                       # Number of cycles rename is idle
system.cpu0.rename.LQFullEvents               2875356                       # Number of times rename has blocked due to LQ full
system.cpu0.rename.ROBFullEvents                11358                       # Number of times rename has blocked due to ROB full
system.cpu0.rename.RenameLookups            770969165                       # Number of register rename lookups that rename has made
system.cpu0.rename.RenamedInsts             632632765                       # Number of instructions processed by rename
system.cpu0.rename.RenamedOperands          405800393                       # Number of destination operands rename has renamed
system.cpu0.rename.RunCycles                436005166                       # Number of cycles rename is running
system.cpu0.rename.SQFullEvents               4280549                       # Number of times rename has blocked due to SQ full
system.cpu0.rename.SquashCycles               4833417                       # Number of cycles rename is squashing
system.cpu0.rename.UnblockCycles             10544139                       # Number of cycles rename is unblocking
system.cpu0.rename.UndoneMaps                47973036                       # Number of HB maps that are undone due to squashing
system.cpu0.rename.fp_rename_lookups               44                       # Number of floating rename lookups
system.cpu0.rename.int_rename_lookups       770969121                       # Number of integer rename lookups
system.cpu0.rename.serializeStallCycles         99511                       # count of cycles rename stalled for serializing inst
system.cpu0.rename.serializingInsts              3157                       # count of serializing insts renamed
system.cpu0.rename.skidInsts                  7319903                       # count of insts added to the skid buffer
system.cpu0.rename.tempSerializingInsts          3135                       # count of temporary serializing insts renamed
system.cpu0.rob.rob_reads                  1482411036                       # The number of ROB reads
system.cpu0.rob.rob_writes                 1258762247                       # The number of ROB writes
system.cpu0.timesIdled                       11605866                       # Number of times that the entire CPU went into an idle state and unscheduled itself
system.cpu0.workload.numSyscalls                  995                       # Number of system calls
system.cpu1.branchPred.BTBCorrect                   0                       # Number of correct BTB predictions (this stat may not work properly.
system.cpu1.branchPred.BTBHitPct            77.817299                       # BTB Hit Percentage
system.cpu1.branchPred.BTBHits                4196834                       # Number of BTB hits
system.cpu1.branchPred.BTBLookups             5393189                       # Number of BTB lookups
system.cpu1.branchPred.RASInCorrect                 0                       # Number of incorrect RAS predictions.
system.cpu1.branchPred.condIncorrect          1095718                       # Number of conditional branches incorrect
system.cpu1.branchPred.condPredicted          7216981                       # Number of conditional branches predicted
system.cpu1.branchPred.indirectHits            136644                       # Number of indirect target hits.
system.cpu1.branchPred.indirectLookups         304404                       # Number of indirect predictor lookups.
system.cpu1.branchPred.indirectMisses          167760                       # Number of indirect misses.
system.cpu1.branchPred.lookups                8378096                       # Number of BP lookups
system.cpu1.branchPred.usedRAS                      0                       # Number of times the RAS was used to get a target.
system.cpu1.branchPredindirectMispredicted         8828                       # Number of mispredicted indirect branches.
system.cpu1.commit.amos                        509162                       # Number of atomic instructions committed
system.cpu1.commit.branchMispredicts           648606                       # The number of times a branch was mispredicted
system.cpu1.commit.branches                   4418856                       # Number of branches committed
system.cpu1.commit.bw_lim_events               436109                       # number cycles where commit BW limit reached
system.cpu1.commit.commitNonSpecStalls        1528203                       # The number of times commit has been forced to stall to communicate backwards
system.cpu1.commit.commitSquashedInsts       12393020                       # The number of squashed insts skipped by commit
system.cpu1.commit.committedInsts            19240919                       # Number of instructions committed
system.cpu1.commit.committedOps              19750299                       # Number of ops (including micro ops) committed
system.cpu1.commit.committed_per_cycle::samples    109321220                       # Number of insts commited each cycle
system.cpu1.commit.committed_per_cycle::mean     0.180663                       # Number of insts commited each cycle
system.cpu1.commit.committed_per_cycle::stdev     0.817299                       # Number of insts commited each cycle
system.cpu1.commit.committed_per_cycle::underflows            0      0.00%      0.00% # Number of insts commited each cycle
system.cpu1.commit.committed_per_cycle::0    100733494     92.14%     92.14% # Number of insts commited each cycle
system.cpu1.commit.committed_per_cycle::1      4357384      3.99%     96.13% # Number of insts commited each cycle
system.cpu1.commit.committed_per_cycle::2      1526432      1.40%     97.53% # Number of insts commited each cycle
system.cpu1.commit.committed_per_cycle::3      1350532      1.24%     98.76% # Number of insts commited each cycle
system.cpu1.commit.committed_per_cycle::4       326534      0.30%     99.06% # Number of insts commited each cycle
system.cpu1.commit.committed_per_cycle::5       117431      0.11%     99.17% # Number of insts commited each cycle
system.cpu1.commit.committed_per_cycle::6       406836      0.37%     99.54% # Number of insts commited each cycle
system.cpu1.commit.committed_per_cycle::7        66468      0.06%     99.60% # Number of insts commited each cycle
system.cpu1.commit.committed_per_cycle::8       436109      0.40%    100.00% # Number of insts commited each cycle
system.cpu1.commit.committed_per_cycle::overflows            0      0.00%    100.00% # Number of insts commited each cycle
system.cpu1.commit.committed_per_cycle::min_value            0                       # Number of insts commited each cycle
system.cpu1.commit.committed_per_cycle::max_value            8                       # Number of insts commited each cycle
system.cpu1.commit.committed_per_cycle::total    109321220                       # Number of insts commited each cycle
system.cpu1.commit.fp_insts                        12                       # Number of committed floating point instructions.
system.cpu1.commit.function_calls              227322                       # Number of function calls committed.
system.cpu1.commit.int_insts                 18549865                       # Number of committed integer instructions.
system.cpu1.commit.loads                      5319750                       # Number of loads committed
system.cpu1.commit.membars                    1018431                       # Number of memory barriers committed
system.cpu1.commit.op_class_0::No_OpClass      1018431      5.16%      5.16% # Class of committed instruction
system.cpu1.commit.op_class_0::IntAlu        11643619     58.95%     64.11% # Class of committed instruction
system.cpu1.commit.op_class_0::IntMult             42      0.00%     64.11% # Class of committed instruction
system.cpu1.commit.op_class_0::IntDiv              84      0.00%     64.11% # Class of committed instruction
system.cpu1.commit.op_class_0::FloatAdd             0      0.00%     64.11% # Class of committed instruction
system.cpu1.commit.op_class_0::FloatCmp             0      0.00%     64.11% # Class of committed instruction
system.cpu1.commit.op_class_0::FloatCvt             0      0.00%     64.11% # Class of committed instruction
system.cpu1.commit.op_class_0::FloatMult            0      0.00%     64.11% # Class of committed instruction
system.cpu1.commit.op_class_0::FloatMultAcc            0      0.00%     64.11% # Class of committed instruction
system.cpu1.commit.op_class_0::FloatDiv             0      0.00%     64.11% # Class of committed instruction
system.cpu1.commit.op_class_0::FloatMisc            0      0.00%     64.11% # Class of committed instruction
system.cpu1.commit.op_class_0::FloatSqrt            0      0.00%     64.11% # Class of committed instruction
system.cpu1.commit.op_class_0::SimdAdd              0      0.00%     64.11% # Class of committed instruction
system.cpu1.commit.op_class_0::SimdAddAcc            0      0.00%     64.11% # Class of committed instruction
system.cpu1.commit.op_class_0::SimdAlu              0      0.00%     64.11% # Class of committed instruction
system.cpu1.commit.op_class_0::SimdCmp              0      0.00%     64.11% # Class of committed instruction
system.cpu1.commit.op_class_0::SimdCvt              0      0.00%     64.11% # Class of committed instruction
system.cpu1.commit.op_class_0::SimdMisc             0      0.00%     64.11% # Class of committed instruction
system.cpu1.commit.op_class_0::SimdMult             0      0.00%     64.11% # Class of committed instruction
system.cpu1.commit.op_class_0::SimdMultAcc            0      0.00%     64.11% # Class of committed instruction
system.cpu1.commit.op_class_0::SimdShift            0      0.00%     64.11% # Class of committed instruction
system.cpu1.commit.op_class_0::SimdShiftAcc            0      0.00%     64.11% # Class of committed instruction
system.cpu1.commit.op_class_0::SimdDiv              0      0.00%     64.11% # Class of committed instruction
system.cpu1.commit.op_class_0::SimdSqrt             0      0.00%     64.11% # Class of committed instruction
system.cpu1.commit.op_class_0::SimdFloatAdd            0      0.00%     64.11% # Class of committed instruction
system.cpu1.commit.op_class_0::SimdFloatAlu            0      0.00%     64.11% # Class of committed instruction
system.cpu1.commit.op_class_0::SimdFloatCmp            0      0.00%     64.11% # Class of committed instruction
system.cpu1.commit.op_class_0::SimdFloatCvt            0      0.00%     64.11% # Class of committed instruction
system.cpu1.commit.op_class_0::SimdFloatDiv            0      0.00%     64.11% # Class of committed instruction
system.cpu1.commit.op_class_0::SimdFloatMisc            0      0.00%     64.11% # Class of committed instruction
system.cpu1.commit.op_class_0::SimdFloatMult            0      0.00%     64.11% # Class of committed instruction
system.cpu1.commit.op_class_0::SimdFloatMultAcc            0      0.00%     64.11% # Class of committed instruction
system.cpu1.commit.op_class_0::SimdFloatSqrt            0      0.00%     64.11% # Class of committed instruction
system.cpu1.commit.op_class_0::SimdReduceAdd            0      0.00%     64.11% # Class of committed instruction
system.cpu1.commit.op_class_0::SimdReduceAlu            0      0.00%     64.11% # Class of committed instruction
system.cpu1.commit.op_class_0::SimdReduceCmp            0      0.00%     64.11% # Class of committed instruction
system.cpu1.commit.op_class_0::SimdFloatReduceAdd            0      0.00%     64.11% # Class of committed instruction
system.cpu1.commit.op_class_0::SimdFloatReduceCmp            0      0.00%     64.11% # Class of committed instruction
system.cpu1.commit.op_class_0::SimdAes              0      0.00%     64.11% # Class of committed instruction
system.cpu1.commit.op_class_0::SimdAesMix            0      0.00%     64.11% # Class of committed instruction
system.cpu1.commit.op_class_0::SimdSha1Hash            0      0.00%     64.11% # Class of committed instruction
system.cpu1.commit.op_class_0::SimdSha1Hash2            0      0.00%     64.11% # Class of committed instruction
system.cpu1.commit.op_class_0::SimdSha256Hash            0      0.00%     64.11% # Class of committed instruction
system.cpu1.commit.op_class_0::SimdSha256Hash2            0      0.00%     64.11% # Class of committed instruction
system.cpu1.commit.op_class_0::SimdShaSigma2            0      0.00%     64.11% # Class of committed instruction
system.cpu1.commit.op_class_0::SimdShaSigma3            0      0.00%     64.11% # Class of committed instruction
system.cpu1.commit.op_class_0::SimdPredAlu            0      0.00%     64.11% # Class of committed instruction
system.cpu1.commit.op_class_0::MemRead        5828912     29.51%     93.62% # Class of committed instruction
system.cpu1.commit.op_class_0::MemWrite       1259199      6.38%    100.00% # Class of committed instruction
system.cpu1.commit.op_class_0::FloatMemRead            0      0.00%    100.00% # Class of committed instruction
system.cpu1.commit.op_class_0::FloatMemWrite           12      0.00%    100.00% # Class of committed instruction
system.cpu1.commit.op_class_0::IprAccess            0      0.00%    100.00% # Class of committed instruction
system.cpu1.commit.op_class_0::InstPrefetch            0      0.00%    100.00% # Class of committed instruction
system.cpu1.commit.op_class_0::total         19750299                       # Class of committed instruction
system.cpu1.commit.refs                       7088123                       # Number of memory references committed
system.cpu1.commit.swp_count                        0                       # Number of s/w prefetches committed
system.cpu1.commit.vec_insts                        0                       # Number of committed Vector instructions.
system.cpu1.committedInsts                   19240919                       # Number of Instructions Simulated
system.cpu1.committedOps                     19750299                       # Number of Ops (including micro ops) Simulated
system.cpu1.cpi                              5.847136                       # CPI: Cycles Per Instruction
system.cpu1.cpi_total                        5.847136                       # CPI: Total CPI of All Threads
system.cpu1.decode.BlockedCycles             86979917                       # Number of cycles decode is blocked
system.cpu1.decode.BranchMispred               451984                       # Number of times decode detected a branch misprediction
system.cpu1.decode.BranchResolved             3735799                       # Number of times decode resolved a branch
system.cpu1.decode.DecodedInsts              34895709                       # Number of instructions handled by decode
system.cpu1.decode.IdleCycles                 6814139                       # Number of cycles decode is idle
system.cpu1.decode.RunCycles                 15815883                       # Number of cycles decode is running
system.cpu1.decode.SquashCycles                649013                       # Number of cycles decode is squashing
system.cpu1.decode.SquashedInsts               467877                       # Number of squashed instructions handled by decode
system.cpu1.decode.UnblockCycles              1096951                       # Number of cycles decode is unblocking
system.cpu1.dtb.accesses                            0                       # DTB accesses
system.cpu1.dtb.hits                                0                       # DTB hits
system.cpu1.dtb.misses                              0                       # DTB misses
system.cpu1.dtb.read_accesses                       0                       # DTB read accesses
system.cpu1.dtb.read_hits                           0                       # DTB read hits
system.cpu1.dtb.read_misses                         0                       # DTB read misses
system.cpu1.dtb.write_accesses                      0                       # DTB write accesses
system.cpu1.dtb.write_hits                          0                       # DTB write hits
system.cpu1.dtb.write_misses                        0                       # DTB write misses
system.cpu1.fetch.Branches                    8378096                       # Number of branches that fetch encountered
system.cpu1.fetch.CacheLines                  5913279                       # Number of cache lines fetched
system.cpu1.fetch.Cycles                    103486571                       # Number of cycles fetch has run and was not squashing or blocked
system.cpu1.fetch.IcacheSquashes                86543                       # Number of outstanding Icache misses that were squashed
system.cpu1.fetch.IcacheWaitRetryStallCycles           36                       # Number of stall cycles due to full MSHR
system.cpu1.fetch.Insts                      40501576                       # Number of instructions fetch has processed
system.cpu1.fetch.MiscStallCycles                 129                       # Number of cycles fetch has spent waiting on interrupts, or bad addresses, or out of MSHRs
system.cpu1.fetch.SquashCycles                2192250                       # Number of cycles fetch has spent squashing
system.cpu1.fetch.branchRate                 0.074469                       # Number of branch fetches per cycle
system.cpu1.fetch.icacheStallCycles           6773042                       # Number of cycles fetch is stalled on an Icache miss
system.cpu1.fetch.predictedBranches           4333478                       # Number of branches that fetch has predicted taken
system.cpu1.fetch.rate                       0.360000                       # Number of inst fetches per cycle
system.cpu1.fetch.rateDist::samples         111355903                       # Number of instructions fetched each cycle (Total)
system.cpu1.fetch.rateDist::mean             0.378251                       # Number of instructions fetched each cycle (Total)
system.cpu1.fetch.rateDist::stdev            0.886853                       # Number of instructions fetched each cycle (Total)
system.cpu1.fetch.rateDist::underflows              0      0.00%      0.00% # Number of instructions fetched each cycle (Total)
system.cpu1.fetch.rateDist::0                86369610     77.56%     77.56% # Number of instructions fetched each cycle (Total)
system.cpu1.fetch.rateDist::1                15311129     13.75%     91.31% # Number of instructions fetched each cycle (Total)
system.cpu1.fetch.rateDist::2                 5842975      5.25%     96.56% # Number of instructions fetched each cycle (Total)
system.cpu1.fetch.rateDist::3                 2019391      1.81%     98.37% # Number of instructions fetched each cycle (Total)
system.cpu1.fetch.rateDist::4                  661224      0.59%     98.97% # Number of instructions fetched each cycle (Total)
system.cpu1.fetch.rateDist::5                  489617      0.44%     99.41% # Number of instructions fetched each cycle (Total)
system.cpu1.fetch.rateDist::6                  661727      0.59%    100.00% # Number of instructions fetched each cycle (Total)
system.cpu1.fetch.rateDist::7                       9      0.00%    100.00% # Number of instructions fetched each cycle (Total)
system.cpu1.fetch.rateDist::8                     221      0.00%    100.00% # Number of instructions fetched each cycle (Total)
system.cpu1.fetch.rateDist::overflows               0      0.00%    100.00% # Number of instructions fetched each cycle (Total)
system.cpu1.fetch.rateDist::min_value               0                       # Number of instructions fetched each cycle (Total)
system.cpu1.fetch.rateDist::max_value               8                       # Number of instructions fetched each cycle (Total)
system.cpu1.fetch.rateDist::total           111355903                       # Number of instructions fetched each cycle (Total)
system.cpu1.fp_regfile_reads                       12                       # number of floating regfile reads
system.cpu1.idleCycles                        1148364                       # Total number of cycles that the CPU has spent unscheduled due to idling
system.cpu1.iew.branchMispredicts              665788                       # Number of branch mispredicts detected at execute
system.cpu1.iew.exec_branches                 5687434                       # Number of branches executed
system.cpu1.iew.exec_nop                            0                       # number of nop insts executed
system.cpu1.iew.exec_rate                    0.204308                       # Inst execution rate
system.cpu1.iew.exec_refs                     7703411                       # number of memory reference insts executed
system.cpu1.iew.exec_stores                   1862479                       # Number of stores executed
system.cpu1.iew.exec_swp                            0                       # number of swp insts executed
system.cpu1.iew.iewBlockCycles               76738528                       # Number of cycles IEW is blocking
system.cpu1.iew.iewDispLoadInsts              9023820                       # Number of dispatched load instructions
system.cpu1.iew.iewDispNonSpecInsts           1109709                       # Number of dispatched non-speculative instructions
system.cpu1.iew.iewDispSquashedInsts           517423                       # Number of squashed instructions skipped by dispatch
system.cpu1.iew.iewDispStoreInsts             3127836                       # Number of dispatched store instructions
system.cpu1.iew.iewDispatchedInsts           32136489                       # Number of instructions dispatched to IQ
system.cpu1.iew.iewExecLoadInsts              5840932                       # Number of load instructions executed
system.cpu1.iew.iewExecSquashedInsts           290733                       # Number of squashed instructions skipped in execute
system.cpu1.iew.iewExecutedInsts             22985490                       # Number of executed instructions
system.cpu1.iew.iewIQFullEvents                446874                       # Number of times the IQ has become full, causing a stall
system.cpu1.iew.iewIdleCycles                       0                       # Number of cycles IEW is idle
system.cpu1.iew.iewLSQFullEvents              1349113                       # Number of times the LSQ has become full, causing a stall
system.cpu1.iew.iewSquashCycles                649013                       # Number of cycles IEW is squashing
system.cpu1.iew.iewUnblockCycles              2366393                       # Number of cycles IEW is unblocking
system.cpu1.iew.lsq.thread0.blockedLoads            0                       # Number of blocked loads due to partial load-store forwarding
system.cpu1.iew.lsq.thread0.cacheBlocked        12430                       # Number of times an access to memory failed due to the cache being blocked
system.cpu1.iew.lsq.thread0.forwLoads          130607                       # Number of loads that had data forwarded from stores
system.cpu1.iew.lsq.thread0.ignoredResponses         5994                       # Number of memory responses ignored because the instruction is squashed
system.cpu1.iew.lsq.thread0.invAddrLoads            0                       # Number of loads ignored due to an invalid address
system.cpu1.iew.lsq.thread0.invAddrSwpfs            0                       # Number of software prefetches ignored due to an invalid address
system.cpu1.iew.lsq.thread0.memOrderViolation          420                       # Number of memory ordering violations
system.cpu1.iew.lsq.thread0.rescheduledLoads          864                       # Number of loads that were rescheduled
system.cpu1.iew.lsq.thread0.squashedLoads      3704070                       # Number of loads squashed
system.cpu1.iew.lsq.thread0.squashedStores      1359463                       # Number of stores squashed
system.cpu1.iew.memOrderViolationEvents           420                       # Number of memory order violations
system.cpu1.iew.predictedNotTakenIncorrect       158753                       # Number of branches that were predicted not taken incorrectly
system.cpu1.iew.predictedTakenIncorrect        507035                       # Number of branches that were predicted taken incorrectly
system.cpu1.iew.wb_consumers                 12732341                       # num instructions consuming a value
system.cpu1.iew.wb_count                     22763229                       # cumulative count of insts written-back
system.cpu1.iew.wb_fanout                    0.832497                       # average fanout of values written-back
system.cpu1.iew.wb_producers                 10599633                       # num instructions producing a value
system.cpu1.iew.wb_rate                      0.202332                       # insts written-back per cycle
system.cpu1.iew.wb_sent                      22769898                       # cumulative count of insts sent to commit
system.cpu1.int_regfile_reads                29055846                       # number of integer regfile reads
system.cpu1.int_regfile_writes               14836081                       # number of integer regfile writes
system.cpu1.ipc                              0.171024                       # IPC: Instructions Per Cycle
system.cpu1.ipc_total                        0.171024                       # IPC: Total IPC of All Threads
system.cpu1.iq.FU_type_0::No_OpClass          1018623      4.38%      4.38% # Type of FU issued
system.cpu1.iq.FU_type_0::IntAlu             14472125     62.18%     66.55% # Type of FU issued
system.cpu1.iq.FU_type_0::IntMult                  47      0.00%     66.55% # Type of FU issued
system.cpu1.iq.FU_type_0::IntDiv                   86      0.00%     66.55% # Type of FU issued
system.cpu1.iq.FU_type_0::FloatAdd                  0      0.00%     66.55% # Type of FU issued
system.cpu1.iq.FU_type_0::FloatCmp                  0      0.00%     66.55% # Type of FU issued
system.cpu1.iq.FU_type_0::FloatCvt                  0      0.00%     66.55% # Type of FU issued
system.cpu1.iq.FU_type_0::FloatMult                 0      0.00%     66.55% # Type of FU issued
system.cpu1.iq.FU_type_0::FloatMultAcc              0      0.00%     66.55% # Type of FU issued
system.cpu1.iq.FU_type_0::FloatDiv                  0      0.00%     66.55% # Type of FU issued
system.cpu1.iq.FU_type_0::FloatMisc                 0      0.00%     66.55% # Type of FU issued
system.cpu1.iq.FU_type_0::FloatSqrt                 0      0.00%     66.55% # Type of FU issued
system.cpu1.iq.FU_type_0::SimdAdd                   0      0.00%     66.55% # Type of FU issued
system.cpu1.iq.FU_type_0::SimdAddAcc                0      0.00%     66.55% # Type of FU issued
system.cpu1.iq.FU_type_0::SimdAlu                   0      0.00%     66.55% # Type of FU issued
system.cpu1.iq.FU_type_0::SimdCmp                   0      0.00%     66.55% # Type of FU issued
system.cpu1.iq.FU_type_0::SimdCvt                   0      0.00%     66.55% # Type of FU issued
system.cpu1.iq.FU_type_0::SimdMisc                  0      0.00%     66.55% # Type of FU issued
system.cpu1.iq.FU_type_0::SimdMult                  0      0.00%     66.55% # Type of FU issued
system.cpu1.iq.FU_type_0::SimdMultAcc               0      0.00%     66.55% # Type of FU issued
system.cpu1.iq.FU_type_0::SimdShift                 0      0.00%     66.55% # Type of FU issued
system.cpu1.iq.FU_type_0::SimdShiftAcc              0      0.00%     66.55% # Type of FU issued
system.cpu1.iq.FU_type_0::SimdDiv                   0      0.00%     66.55% # Type of FU issued
system.cpu1.iq.FU_type_0::SimdSqrt                  0      0.00%     66.55% # Type of FU issued
system.cpu1.iq.FU_type_0::SimdFloatAdd              0      0.00%     66.55% # Type of FU issued
system.cpu1.iq.FU_type_0::SimdFloatAlu              0      0.00%     66.55% # Type of FU issued
system.cpu1.iq.FU_type_0::SimdFloatCmp              0      0.00%     66.55% # Type of FU issued
system.cpu1.iq.FU_type_0::SimdFloatCvt              0      0.00%     66.55% # Type of FU issued
system.cpu1.iq.FU_type_0::SimdFloatDiv              0      0.00%     66.55% # Type of FU issued
system.cpu1.iq.FU_type_0::SimdFloatMisc             0      0.00%     66.55% # Type of FU issued
system.cpu1.iq.FU_type_0::SimdFloatMult             0      0.00%     66.55% # Type of FU issued
system.cpu1.iq.FU_type_0::SimdFloatMultAcc            0      0.00%     66.55% # Type of FU issued
system.cpu1.iq.FU_type_0::SimdFloatSqrt             0      0.00%     66.55% # Type of FU issued
system.cpu1.iq.FU_type_0::SimdReduceAdd             0      0.00%     66.55% # Type of FU issued
system.cpu1.iq.FU_type_0::SimdReduceAlu             0      0.00%     66.55% # Type of FU issued
system.cpu1.iq.FU_type_0::SimdReduceCmp             0      0.00%     66.55% # Type of FU issued
system.cpu1.iq.FU_type_0::SimdFloatReduceAdd            0      0.00%     66.55% # Type of FU issued
system.cpu1.iq.FU_type_0::SimdFloatReduceCmp            0      0.00%     66.55% # Type of FU issued
system.cpu1.iq.FU_type_0::SimdAes                   0      0.00%     66.55% # Type of FU issued
system.cpu1.iq.FU_type_0::SimdAesMix                0      0.00%     66.55% # Type of FU issued
system.cpu1.iq.FU_type_0::SimdSha1Hash              0      0.00%     66.55% # Type of FU issued
system.cpu1.iq.FU_type_0::SimdSha1Hash2             0      0.00%     66.55% # Type of FU issued
system.cpu1.iq.FU_type_0::SimdSha256Hash            0      0.00%     66.55% # Type of FU issued
system.cpu1.iq.FU_type_0::SimdSha256Hash2            0      0.00%     66.55% # Type of FU issued
system.cpu1.iq.FU_type_0::SimdShaSigma2             0      0.00%     66.55% # Type of FU issued
system.cpu1.iq.FU_type_0::SimdShaSigma3             0      0.00%     66.55% # Type of FU issued
system.cpu1.iq.FU_type_0::SimdPredAlu               0      0.00%     66.55% # Type of FU issued
system.cpu1.iq.FU_type_0::MemRead             6416753     27.57%     94.12% # Type of FU issued
system.cpu1.iq.FU_type_0::MemWrite            1368577      5.88%    100.00% # Type of FU issued
system.cpu1.iq.FU_type_0::FloatMemRead              0      0.00%    100.00% # Type of FU issued
system.cpu1.iq.FU_type_0::FloatMemWrite            12      0.00%    100.00% # Type of FU issued
system.cpu1.iq.FU_type_0::IprAccess                 0      0.00%    100.00% # Type of FU issued
system.cpu1.iq.FU_type_0::InstPrefetch              0      0.00%    100.00% # Type of FU issued
system.cpu1.iq.FU_type_0::total              23276223                       # Type of FU issued
system.cpu1.iq.fp_alu_accesses                     16                       # Number of floating point alu accesses
system.cpu1.iq.fp_inst_queue_reads                 28                       # Number of floating instruction queue reads
system.cpu1.iq.fp_inst_queue_wakeup_accesses           12                       # Number of floating instruction queue wakeup accesses
system.cpu1.iq.fp_inst_queue_writes                12                       # Number of floating instruction queue writes
system.cpu1.iq.fu_busy_cnt                     527133                       # FU busy when requested
system.cpu1.iq.fu_busy_rate                  0.022647                       # FU busy rate (busy events/executed inst)
system.cpu1.iq.fu_full::No_OpClass                  0      0.00%      0.00% # attempts to use FU when none available
system.cpu1.iq.fu_full::IntAlu                  75336     14.29%     14.29% # attempts to use FU when none available
system.cpu1.iq.fu_full::IntMult                     0      0.00%     14.29% # attempts to use FU when none available
system.cpu1.iq.fu_full::IntDiv                      0      0.00%     14.29% # attempts to use FU when none available
system.cpu1.iq.fu_full::FloatAdd                    0      0.00%     14.29% # attempts to use FU when none available
system.cpu1.iq.fu_full::FloatCmp                    0      0.00%     14.29% # attempts to use FU when none available
system.cpu1.iq.fu_full::FloatCvt                    0      0.00%     14.29% # attempts to use FU when none available
system.cpu1.iq.fu_full::FloatMult                   0      0.00%     14.29% # attempts to use FU when none available
system.cpu1.iq.fu_full::FloatMultAcc                0      0.00%     14.29% # attempts to use FU when none available
system.cpu1.iq.fu_full::FloatDiv                    0      0.00%     14.29% # attempts to use FU when none available
system.cpu1.iq.fu_full::FloatMisc                   0      0.00%     14.29% # attempts to use FU when none available
system.cpu1.iq.fu_full::FloatSqrt                   0      0.00%     14.29% # attempts to use FU when none available
system.cpu1.iq.fu_full::SimdAdd                     0      0.00%     14.29% # attempts to use FU when none available
system.cpu1.iq.fu_full::SimdAddAcc                  0      0.00%     14.29% # attempts to use FU when none available
system.cpu1.iq.fu_full::SimdAlu                     0      0.00%     14.29% # attempts to use FU when none available
system.cpu1.iq.fu_full::SimdCmp                     0      0.00%     14.29% # attempts to use FU when none available
system.cpu1.iq.fu_full::SimdCvt                     0      0.00%     14.29% # attempts to use FU when none available
system.cpu1.iq.fu_full::SimdMisc                    0      0.00%     14.29% # attempts to use FU when none available
system.cpu1.iq.fu_full::SimdMult                    0      0.00%     14.29% # attempts to use FU when none available
system.cpu1.iq.fu_full::SimdMultAcc                 0      0.00%     14.29% # attempts to use FU when none available
system.cpu1.iq.fu_full::SimdShift                   0      0.00%     14.29% # attempts to use FU when none available
system.cpu1.iq.fu_full::SimdShiftAcc                0      0.00%     14.29% # attempts to use FU when none available
system.cpu1.iq.fu_full::SimdDiv                     0      0.00%     14.29% # attempts to use FU when none available
system.cpu1.iq.fu_full::SimdSqrt                    0      0.00%     14.29% # attempts to use FU when none available
system.cpu1.iq.fu_full::SimdFloatAdd                0      0.00%     14.29% # attempts to use FU when none available
system.cpu1.iq.fu_full::SimdFloatAlu                0      0.00%     14.29% # attempts to use FU when none available
system.cpu1.iq.fu_full::SimdFloatCmp                0      0.00%     14.29% # attempts to use FU when none available
system.cpu1.iq.fu_full::SimdFloatCvt                0      0.00%     14.29% # attempts to use FU when none available
system.cpu1.iq.fu_full::SimdFloatDiv                0      0.00%     14.29% # attempts to use FU when none available
system.cpu1.iq.fu_full::SimdFloatMisc               0      0.00%     14.29% # attempts to use FU when none available
system.cpu1.iq.fu_full::SimdFloatMult               0      0.00%     14.29% # attempts to use FU when none available
system.cpu1.iq.fu_full::SimdFloatMultAcc            0      0.00%     14.29% # attempts to use FU when none available
system.cpu1.iq.fu_full::SimdFloatSqrt               0      0.00%     14.29% # attempts to use FU when none available
system.cpu1.iq.fu_full::SimdReduceAdd               0      0.00%     14.29% # attempts to use FU when none available
system.cpu1.iq.fu_full::SimdReduceAlu               0      0.00%     14.29% # attempts to use FU when none available
system.cpu1.iq.fu_full::SimdReduceCmp               0      0.00%     14.29% # attempts to use FU when none available
system.cpu1.iq.fu_full::SimdFloatReduceAdd            0      0.00%     14.29% # attempts to use FU when none available
system.cpu1.iq.fu_full::SimdFloatReduceCmp            0      0.00%     14.29% # attempts to use FU when none available
system.cpu1.iq.fu_full::SimdAes                     0      0.00%     14.29% # attempts to use FU when none available
system.cpu1.iq.fu_full::SimdAesMix                  0      0.00%     14.29% # attempts to use FU when none available
system.cpu1.iq.fu_full::SimdSha1Hash                0      0.00%     14.29% # attempts to use FU when none available
system.cpu1.iq.fu_full::SimdSha1Hash2               0      0.00%     14.29% # attempts to use FU when none available
system.cpu1.iq.fu_full::SimdSha256Hash              0      0.00%     14.29% # attempts to use FU when none available
system.cpu1.iq.fu_full::SimdSha256Hash2             0      0.00%     14.29% # attempts to use FU when none available
system.cpu1.iq.fu_full::SimdShaSigma2               0      0.00%     14.29% # attempts to use FU when none available
system.cpu1.iq.fu_full::SimdShaSigma3               0      0.00%     14.29% # attempts to use FU when none available
system.cpu1.iq.fu_full::SimdPredAlu                 0      0.00%     14.29% # attempts to use FU when none available
system.cpu1.iq.fu_full::MemRead                411115     77.99%     92.28% # attempts to use FU when none available
[...]
system.cpu1.dcache.WriteReq_avg_mshr_miss_latency::total 58687.302808                       # average WriteReq mshr miss latency
system.cpu1.dcache.LoadLockedReq_hits::.cpu1.data        30383                       # number of LoadLockedReq hits
system.cpu1.dcache.LoadLockedReq_hits::total        30383                       # number of LoadLockedReq hits
system.cpu1.dcache.LoadLockedReq_misses::.cpu1.data         1661                       # number of LoadLockedReq misses
system.cpu1.dcache.LoadLockedReq_misses::total         1661                       # number of LoadLockedReq misses
system.cpu1.dcache.LoadLockedReq_miss_latency::.cpu1.data     43109500                       # number of LoadLockedReq miss cycles
system.cpu1.dcache.LoadLockedReq_miss_latency::total     43109500                       # number of LoadLockedReq miss cycles
system.cpu1.dcache.LoadLockedReq_accesses::.cpu1.data        32044                       # number of LoadLockedReq accesses(hits+misses)
system.cpu1.dcache.LoadLockedReq_accesses::total        32044                       # number of LoadLockedReq accesses(hits+misses)
system.cpu1.dcache.LoadLockedReq_miss_rate::.cpu1.data     0.051835                       # miss rate for LoadLockedReq accesses
system.cpu1.dcache.LoadLockedReq_miss_rate::total     0.051835                       # miss rate for LoadLockedReq accesses
system.cpu1.dcache.LoadLockedReq_avg_miss_latency::.cpu1.data 25953.943408                       # average LoadLockedReq miss latency
system.cpu1.dcache.LoadLockedReq_avg_miss_latency::total 25953.943408                       # average LoadLockedReq miss latency
system.cpu1.dcache.LoadLockedReq_mshr_hits::.cpu1.data          459                       # number of LoadLockedReq MSHR hits
system.cpu1.dcache.LoadLockedReq_mshr_hits::total          459                       # number of LoadLockedReq MSHR hits
system.cpu1.dcache.LoadLockedReq_mshr_misses::.cpu1.data         1202                       # number of LoadLockedReq MSHR misses
system.cpu1.dcache.LoadLockedReq_mshr_misses::total         1202                       # number of LoadLockedReq MSHR misses
system.cpu1.dcache.LoadLockedReq_mshr_miss_latency::.cpu1.data     16907500                       # number of LoadLockedReq MSHR miss cycles
system.cpu1.dcache.LoadLockedReq_mshr_miss_latency::total     16907500                       # number of LoadLockedReq MSHR miss cycles
system.cpu1.dcache.LoadLockedReq_mshr_miss_rate::.cpu1.data     0.037511                       # mshr miss rate for LoadLockedReq accesses
system.cpu1.dcache.LoadLockedReq_mshr_miss_rate::total     0.037511                       # mshr miss rate for LoadLockedReq accesses
system.cpu1.dcache.LoadLockedReq_avg_mshr_miss_latency::.cpu1.data 14066.139767                       # average LoadLockedReq mshr miss latency
system.cpu1.dcache.LoadLockedReq_avg_mshr_miss_latency::total 14066.139767                       # average LoadLockedReq mshr miss latency
system.cpu1.dcache.StoreCondReq_hits::.cpu1.data        24700                       # number of StoreCondReq hits
system.cpu1.dcache.StoreCondReq_hits::total        24700                       # number of StoreCondReq hits
system.cpu1.dcache.StoreCondReq_misses::.cpu1.data         6009                       # number of StoreCondReq misses
system.cpu1.dcache.StoreCondReq_misses::total         6009                       # number of StoreCondReq misses
system.cpu1.dcache.StoreCondReq_miss_latency::.cpu1.data     44095500                       # number of StoreCondReq miss cycles
system.cpu1.dcache.StoreCondReq_miss_latency::total     44095500                       # number of StoreCondReq miss cycles
system.cpu1.dcache.StoreCondReq_accesses::.cpu1.data        30709                       # number of StoreCondReq accesses(hits+misses)
system.cpu1.dcache.StoreCondReq_accesses::total        30709                       # number of StoreCondReq accesses(hits+misses)
system.cpu1.dcache.StoreCondReq_miss_rate::.cpu1.data     0.195676                       # miss rate for StoreCondReq accesses
system.cpu1.dcache.StoreCondReq_miss_rate::total     0.195676                       # miss rate for StoreCondReq accesses
system.cpu1.dcache.StoreCondReq_avg_miss_latency::.cpu1.data  7338.242636                       # average StoreCondReq miss latency
system.cpu1.dcache.StoreCondReq_avg_miss_latency::total  7338.242636                       # average StoreCondReq miss latency
system.cpu1.dcache.StoreCondReq_mshr_misses::.cpu1.data         5830                       # number of StoreCondReq MSHR misses
system.cpu1.dcache.StoreCondReq_mshr_misses::total         5830                       # number of StoreCondReq MSHR misses
system.cpu1.dcache.StoreCondReq_mshr_miss_latency::.cpu1.data     38396500                       # number of StoreCondReq MSHR miss cycles
system.cpu1.dcache.StoreCondReq_mshr_miss_latency::total     38396500                       # number of StoreCondReq MSHR miss cycles
system.cpu1.dcache.StoreCondReq_mshr_miss_rate::.cpu1.data     0.189847                       # mshr miss rate for StoreCondReq accesses
system.cpu1.dcache.StoreCondReq_mshr_miss_rate::total     0.189847                       # mshr miss rate for StoreCondReq accesses
system.cpu1.dcache.StoreCondReq_avg_mshr_miss_latency::.cpu1.data  6586.020583                       # average StoreCondReq mshr miss latency
system.cpu1.dcache.StoreCondReq_avg_mshr_miss_latency::total  6586.020583                       # average StoreCondReq mshr miss latency
system.cpu1.dcache.StoreCondFailReq_miss_latency::.cpu1.data      1846500                       # number of StoreCondFailReq miss cycles
system.cpu1.dcache.StoreCondFailReq_miss_latency::total      1846500                       # number of StoreCondFailReq miss cycles
system.cpu1.dcache.StoreCondFailReq_avg_miss_latency::.cpu1.data          inf                       # average StoreCondFailReq miss latency
system.cpu1.dcache.StoreCondFailReq_avg_miss_latency::total          inf                       # average StoreCondFailReq miss latency
system.cpu1.dcache.StoreCondFailReq_mshr_miss_latency::.cpu1.data      1715500                       # number of StoreCondFailReq MSHR miss cycles
system.cpu1.dcache.StoreCondFailReq_mshr_miss_latency::total      1715500                       # number of StoreCondFailReq MSHR miss cycles
system.cpu1.dcache.StoreCondFailReq_avg_mshr_miss_latency::.cpu1.data          inf                       # average StoreCondFailReq mshr miss latency
system.cpu1.dcache.StoreCondFailReq_avg_mshr_miss_latency::total          inf                       # average StoreCondFailReq mshr miss latency
system.cpu1.dcache.SwapReq_hits::.cpu1.data         1045                       # number of SwapReq hits
system.cpu1.dcache.SwapReq_hits::total           1045                       # number of SwapReq hits
system.cpu1.dcache.SwapReq_misses::.cpu1.data         2819                       # number of SwapReq misses
system.cpu1.dcache.SwapReq_misses::total         2819                       # number of SwapReq misses
system.cpu1.dcache.SwapReq_miss_latency::.cpu1.data     54824500                       # number of SwapReq miss cycles
system.cpu1.dcache.SwapReq_miss_latency::total     54824500                       # number of SwapReq miss cycles
system.cpu1.dcache.SwapReq_accesses::.cpu1.data         3864                       # number of SwapReq accesses(hits+misses)
system.cpu1.dcache.SwapReq_accesses::total         3864                       # number of SwapReq accesses(hits+misses)
system.cpu1.dcache.SwapReq_miss_rate::.cpu1.data     0.729555                       # miss rate for SwapReq accesses
system.cpu1.dcache.SwapReq_miss_rate::total     0.729555                       # miss rate for SwapReq accesses
system.cpu1.dcache.SwapReq_avg_miss_latency::.cpu1.data 19448.208585                       # average SwapReq miss latency
system.cpu1.dcache.SwapReq_avg_miss_latency::total 19448.208585                       # average SwapReq miss latency
system.cpu1.dcache.SwapReq_mshr_hits::.cpu1.data            1                       # number of SwapReq MSHR hits
system.cpu1.dcache.SwapReq_mshr_hits::total            1                       # number of SwapReq MSHR hits
system.cpu1.dcache.SwapReq_mshr_misses::.cpu1.data         2818                       # number of SwapReq MSHR misses
system.cpu1.dcache.SwapReq_mshr_misses::total         2818                       # number of SwapReq MSHR misses
system.cpu1.dcache.SwapReq_mshr_miss_latency::.cpu1.data     52005500                       # number of SwapReq MSHR miss cycles
system.cpu1.dcache.SwapReq_mshr_miss_latency::total     52005500                       # number of SwapReq MSHR miss cycles
system.cpu1.dcache.SwapReq_mshr_miss_rate::.cpu1.data     0.729296                       # mshr miss rate for SwapReq accesses
system.cpu1.dcache.SwapReq_mshr_miss_rate::total     0.729296                       # mshr miss rate for SwapReq accesses
system.cpu1.dcache.SwapReq_avg_mshr_miss_latency::.cpu1.data 18454.755145                       # average SwapReq mshr miss latency
system.cpu1.dcache.SwapReq_avg_mshr_miss_latency::total 18454.755145                       # average SwapReq mshr miss latency
system.cpu1.dcache.tags.pwrStateResidencyTicks::UNDEFINED  41705468500                       # Cumulative time (in ticks) in various power states
system.cpu1.dcache.tags.tagsinuse           31.079457                       # Cycle average of tags in use
system.cpu1.dcache.tags.total_refs            9432181                       # Total number of references to valid blocks.
system.cpu1.dcache.tags.sampled_refs           638427                       # Sample count of references to valid blocks.
system.cpu1.dcache.tags.avg_refs            14.774095                       # Average number of references to valid blocks.
system.cpu1.dcache.tags.warmup_cycle                0                       # Cycle when the warmup percentage was hit.
system.cpu1.dcache.tags.occ_blocks::.cpu1.data    31.079457                       # Average occupied blocks per requestor
system.cpu1.dcache.tags.occ_percent::.cpu1.data     0.971233                       # Average percentage of cache occupancy
system.cpu1.dcache.tags.occ_percent::total     0.971233                       # Average percentage of cache occupancy
system.cpu1.dcache.tags.occ_task_id_blocks::1024           28                       # Occupied blocks per task id
system.cpu1.dcache.tags.age_task_id_blocks_1024::1           28                       # Occupied blocks per task id
system.cpu1.dcache.tags.occ_task_id_percent::1024     0.875000                       # Percentage of cache occupancy per task id
system.cpu1.dcache.tags.tag_accesses         23315553                       # Number of tag accesses
system.cpu1.dcache.tags.data_accesses        23315553                       # Number of data accesses
system.cpu_clk_domain.clock                       500                       # Clock period in ticks
system.tol2bus.pwrStateResidencyTicks::UNDEFINED  41705468500                       # Cumulative time (in ticks) in various power states
system.tol2bus.trans_dist::ReadResp           2629940                       # Transaction distribution
system.tol2bus.trans_dist::ReadRespWithInvalidate           17                       # Transaction distribution
system.tol2bus.trans_dist::WritebackDirty       826802                       # Transaction distribution
system.tol2bus.trans_dist::WritebackClean      2277638                       # Transaction distribution
system.tol2bus.trans_dist::CleanEvict         6022340                       # Transaction distribution
system.tol2bus.trans_dist::HardPFReq          4750562                       # Transaction distribution
system.tol2bus.trans_dist::HardPFResp               7                       # Transaction distribution
system.tol2bus.trans_dist::UpgradeReq           14139                       # Transaction distribution
system.tol2bus.trans_dist::SCUpgradeReq         22822                       # Transaction distribution
system.tol2bus.trans_dist::UpgradeResp          36961                       # Transaction distribution
system.tol2bus.trans_dist::SCUpgradeFailReq          471                       # Transaction distribution
system.tol2bus.trans_dist::UpgradeFailResp          471                       # Transaction distribution
system.tol2bus.trans_dist::ReadExReq           145235                       # Transaction distribution
system.tol2bus.trans_dist::ReadExResp          145235                       # Transaction distribution
system.tol2bus.trans_dist::ReadCleanReq        179160                       # Transaction distribution
system.tol2bus.trans_dist::ReadSharedReq      2450797                       # Transaction distribution
system.tol2bus.trans_dist::InvalidateReq          440                       # Transaction distribution
system.tol2bus.trans_dist::InvalidateResp          440                       # Transaction distribution
system.tol2bus.pkt_count_system.cpu0.icache.mem_side::system.l2.cpu_side       328491                       # Packet count per connected master and slave (bytes)
system.tol2bus.pkt_count_system.cpu0.dcache.mem_side::system.l2.cpu_side      2118452                       # Packet count per connected master and slave (bytes)
system.tol2bus.pkt_count_system.cpu1.icache.mem_side::system.l2.cpu_side        69975                       # Packet count per connected master and slave (bytes)
system.tol2bus.pkt_count_system.cpu1.dcache.mem_side::system.l2.cpu_side      1899580                       # Packet count per connected master and slave (bytes)
system.tol2bus.pkt_count_system.cpu2.icache.mem_side::system.l2.cpu_side        70329                       # Packet count per connected master and slave (bytes)
system.tol2bus.pkt_count_system.cpu2.dcache.mem_side::system.l2.cpu_side      1881206                       # Packet count per connected master and slave (bytes)
system.tol2bus.pkt_count_system.cpu3.icache.mem_side::system.l2.cpu_side        68685                       # Packet count per connected master and slave (bytes)
system.tol2bus.pkt_count_system.cpu3.dcache.mem_side::system.l2.cpu_side      1833050                       # Packet count per connected master and slave (bytes)
system.tol2bus.pkt_count::total               8269768                       # Packet count per connected master and slave (bytes)
system.tol2bus.pkt_size_system.cpu0.icache.mem_side::system.l2.cpu_side     14015616                       # Cumulative packet size per connected master and slave (bytes)
system.tol2bus.pkt_size_system.cpu0.dcache.mem_side::system.l2.cpu_side     89319616                       # Cumulative packet size per connected master and slave (bytes)
system.tol2bus.pkt_size_system.cpu1.icache.mem_side::system.l2.cpu_side      2985600                       # Cumulative packet size per connected master and slave (bytes)
system.tol2bus.pkt_size_system.cpu1.dcache.mem_side::system.l2.cpu_side     80028224                       # Cumulative packet size per connected master and slave (bytes)
system.tol2bus.pkt_size_system.cpu2.icache.mem_side::system.l2.cpu_side      3000704                       # Cumulative packet size per connected master and slave (bytes)
system.tol2bus.pkt_size_system.cpu2.dcache.mem_side::system.l2.cpu_side     79268992                       # Cumulative packet size per connected master and slave (bytes)
system.tol2bus.pkt_size_system.cpu3.icache.mem_side::system.l2.cpu_side      2930560                       # Cumulative packet size per connected master and slave (bytes)
system.tol2bus.pkt_size_system.cpu3.dcache.mem_side::system.l2.cpu_side     77204032                       # Cumulative packet size per connected master and slave (bytes)
system.tol2bus.pkt_size::total              348753344                       # Cumulative packet size per connected master and slave (bytes)
system.tol2bus.snoops                        11233716                       # Total snoops (count)
system.tol2bus.snoopTraffic                  27574144                       # Total snoop traffic (bytes)
system.tol2bus.snoop_fanout::samples         14039856                       # Request fanout histogram
system.tol2bus.snoop_fanout::mean            0.287079                       # Request fanout histogram
system.tol2bus.snoop_fanout::stdev           0.639283                       # Request fanout histogram
system.tol2bus.snoop_fanout::underflows             0      0.00%      0.00% # Request fanout histogram
system.tol2bus.snoop_fanout::0               10990908     78.28%     78.28% # Request fanout histogram
system.tol2bus.snoop_fanout::1                2439336     17.37%     95.66% # Request fanout histogram
system.tol2bus.snoop_fanout::2                 316237      2.25%     97.91% # Request fanout histogram
system.tol2bus.snoop_fanout::3                 214764      1.53%     99.44% # Request fanout histogram
system.tol2bus.snoop_fanout::4                  78611      0.56%    100.00% # Request fanout histogram
system.tol2bus.snoop_fanout::5                      0      0.00%    100.00% # Request fanout histogram
system.tol2bus.snoop_fanout::6                      0      0.00%    100.00% # Request fanout histogram
system.tol2bus.snoop_fanout::7                      0      0.00%    100.00% # Request fanout histogram
system.tol2bus.snoop_fanout::8                      0      0.00%    100.00% # Request fanout histogram
system.tol2bus.snoop_fanout::overflows              0      0.00%    100.00% # Request fanout histogram
system.tol2bus.snoop_fanout::min_value              0                       # Request fanout histogram
system.tol2bus.snoop_fanout::max_value              4                       # Request fanout histogram
system.tol2bus.snoop_fanout::total           14039856                       # Request fanout histogram
system.tol2bus.reqLayer0.occupancy         5604187729                       # Layer occupancy (ticks)
system.tol2bus.reqLayer0.utilization             13.4                       # Layer utilization (%)
system.tol2bus.respLayer5.occupancy         959290569                       # Layer occupancy (ticks)
system.tol2bus.respLayer5.utilization             2.3                       # Layer utilization (%)
system.tol2bus.respLayer4.occupancy          37330037                       # Layer occupancy (ticks)
system.tol2bus.respLayer4.utilization             0.1                       # Layer utilization (%)
system.tol2bus.respLayer7.occupancy         935176478                       # Layer occupancy (ticks)
system.tol2bus.respLayer7.utilization             2.2                       # Layer utilization (%)
system.tol2bus.respLayer6.occupancy          36335005                       # Layer occupancy (ticks)
system.tol2bus.respLayer6.utilization             0.1                       # Layer utilization (%)
system.tol2bus.respLayer1.occupancy        1075193789                       # Layer occupancy (ticks)
system.tol2bus.respLayer1.utilization             2.6                       # Layer utilization (%)
system.tol2bus.respLayer0.occupancy         164725505                       # Layer occupancy (ticks)
system.tol2bus.respLayer0.utilization             0.4                       # Layer utilization (%)
system.tol2bus.respLayer3.occupancy         968388221                       # Layer occupancy (ticks)
system.tol2bus.respLayer3.utilization             2.3                       # Layer utilization (%)
system.tol2bus.respLayer2.occupancy          37123030                       # Layer occupancy (ticks)
system.tol2bus.respLayer2.utilization             0.1                       # Layer utilization (%)
system.tol2bus.snoopLayer0.occupancy            10504                       # Layer occupancy (ticks)
system.tol2bus.snoopLayer0.utilization            0.0                       # Layer utilization (%)

---------- End Simulation Statistics   ----------
