
---------- Begin Simulation Statistics ----------
final_tick                               1254533037000                       # Number of ticks from beginning of simulation (restored from checkpoints and never reset)
host_inst_rate                                  61867                       # Simulator instruction rate (inst/s)
host_mem_usage                                 702356                       # Number of bytes of host memory used
host_op_rate                                    62048                       # Simulator op (including micro ops) rate (op/s)
host_seconds                                 23220.85                       # Real time elapsed on the host
host_tick_rate                               54026154                       # Simulator tick rate (ticks/s)
sim_freq                                 1000000000000                       # Frequency of simulated ticks
sim_insts                                  1436598132                       # Number of instructions simulated
sim_ops                                    1440801890                       # Number of ops (including micro ops) simulated
sim_seconds                                  1.254533                       # Number of seconds simulated
sim_ticks                                1254533037000                       # Number of ticks simulated
system.cpu0.branchPred.BTBCorrect                   0                       # Number of correct BTB predictions (this stat may not work properly.
system.cpu0.branchPred.BTBHitPct            88.044243                       # BTB Hit Percentage
system.cpu0.branchPred.BTBHits              180665885                       # Number of BTB hits
system.cpu0.branchPred.BTBLookups           205198975                       # Number of BTB lookups
system.cpu0.branchPred.RASInCorrect                 0                       # Number of incorrect RAS predictions.
system.cpu0.branchPred.condIncorrect         17594709                       # Number of conditional branches incorrect
system.cpu0.branchPred.condPredicted        277806331                       # Number of conditional branches predicted
system.cpu0.branchPred.indirectHits          22218035                       # Number of indirect target hits.
system.cpu0.branchPred.indirectLookups       23557532                       # Number of indirect predictor lookups.
system.cpu0.branchPred.indirectMisses         1339497                       # Number of indirect misses.
system.cpu0.branchPred.lookups              351134555                       # Number of BP lookups
system.cpu0.branchPred.usedRAS                      0                       # Number of times the RAS was used to get a target.
system.cpu0.branchPredindirectMispredicted      2187535                       # Number of mispredicted indirect branches.
system.cpu0.commit.amos                       2100294                       # Number of atomic instructions committed
system.cpu0.commit.branchMispredicts         10852591                       # The number of times a branch was mispredicted
system.cpu0.commit.branches                 329545747                       # Number of branches committed
system.cpu0.commit.bw_lim_events             39204611                       # number cycles where commit BW limit reached
system.cpu0.commit.commitNonSpecStalls        6309796                       # The number of times commit has been forced to stall to communicate backwards
system.cpu0.commit.commitSquashedInsts       69876538                       # The number of squashed insts skipped by commit
system.cpu0.commit.committedInsts          1316550193                       # Number of instructions committed
system.cpu0.commit.committedOps            1318653780                       # Number of ops (including micro ops) committed
system.cpu0.commit.committed_per_cycle::samples   2330352149                       # Number of insts commited each cycle
system.cpu0.commit.committed_per_cycle::mean     0.565860                       # Number of insts commited each cycle
system.cpu0.commit.committed_per_cycle::stdev     1.335137                       # Number of insts commited each cycle
system.cpu0.commit.committed_per_cycle::underflows            0      0.00%      0.00% # Number of insts commited each cycle
system.cpu0.commit.committed_per_cycle::0   1693328264     72.66%     72.66% # Number of insts commited each cycle
system.cpu0.commit.committed_per_cycle::1    373307255     16.02%     88.68% # Number of insts commited each cycle
system.cpu0.commit.committed_per_cycle::2    107616077      4.62%     93.30% # Number of insts commited each cycle
system.cpu0.commit.committed_per_cycle::3     77371897      3.32%     96.62% # Number of insts commited each cycle
system.cpu0.commit.committed_per_cycle::4     22652209      0.97%     97.59% # Number of insts commited each cycle
system.cpu0.commit.committed_per_cycle::5      9208127      0.40%     97.99% # Number of insts commited each cycle
system.cpu0.commit.committed_per_cycle::6      5933642      0.25%     98.24% # Number of insts commited each cycle
system.cpu0.commit.committed_per_cycle::7      1730067      0.07%     98.32% # Number of insts commited each cycle
system.cpu0.commit.committed_per_cycle::8     39204611      1.68%    100.00% # Number of insts commited each cycle
system.cpu0.commit.committed_per_cycle::overflows            0      0.00%    100.00% # Number of insts commited each cycle
system.cpu0.commit.committed_per_cycle::min_value            0                       # Number of insts commited each cycle
system.cpu0.commit.committed_per_cycle::max_value            8                       # Number of insts commited each cycle
system.cpu0.commit.committed_per_cycle::total   2330352149                       # Number of insts commited each cycle
system.cpu0.commit.fp_insts                        46                       # Number of committed floating point instructions.
system.cpu0.commit.function_calls            25143416                       # Number of function calls committed.
system.cpu0.commit.int_insts               1273921942                       # Number of committed integer instructions.
system.cpu0.commit.loads                    405171146                       # Number of loads committed
system.cpu0.commit.membars                    4203754                       # Number of memory barriers committed
system.cpu0.commit.op_class_0::No_OpClass      4203760      0.32%      0.32% # Class of committed instruction
system.cpu0.commit.op_class_0::IntAlu       742062810     56.27%     56.59% # Class of committed instruction
system.cpu0.commit.op_class_0::IntMult       11831786      0.90%     57.49% # Class of committed instruction
system.cpu0.commit.op_class_0::IntDiv         2099835      0.16%     57.65% # Class of committed instruction
system.cpu0.commit.op_class_0::FloatAdd             0      0.00%     57.65% # Class of committed instruction
system.cpu0.commit.op_class_0::FloatCmp             4      0.00%     57.65% # Class of committed instruction
system.cpu0.commit.op_class_0::FloatCvt            12      0.00%     57.65% # Class of committed instruction
system.cpu0.commit.op_class_0::FloatMult            0      0.00%     57.65% # Class of committed instruction
system.cpu0.commit.op_class_0::FloatMultAcc            0      0.00%     57.65% # Class of committed instruction
system.cpu0.commit.op_class_0::FloatDiv             2      0.00%     57.65% # Class of committed instruction
system.cpu0.commit.op_class_0::FloatMisc            4      0.00%     57.65% # Class of committed instruction
system.cpu0.commit.op_class_0::FloatSqrt            0      0.00%     57.65% # Class of committed instruction
system.cpu0.commit.op_class_0::SimdAdd              0      0.00%     57.65% # Class of committed instruction
system.cpu0.commit.op_class_0::SimdAddAcc            0      0.00%     57.65% # Class of committed instruction
system.cpu0.commit.op_class_0::SimdAlu              0      0.00%     57.65% # Class of committed instruction
system.cpu0.commit.op_class_0::SimdCmp              0      0.00%     57.65% # Class of committed instruction
system.cpu0.commit.op_class_0::SimdCvt              0      0.00%     57.65% # Class of committed instruction
system.cpu0.commit.op_class_0::SimdMisc             0      0.00%     57.65% # Class of committed instruction
system.cpu0.commit.op_class_0::SimdMult             0      0.00%     57.65% # Class of committed instruction
system.cpu0.commit.op_class_0::SimdMultAcc            0      0.00%     57.65% # Class of committed instruction
system.cpu0.commit.op_class_0::SimdShift            0      0.00%     57.65% # Class of committed instruction
system.cpu0.commit.op_class_0::SimdShiftAcc            0      0.00%     57.65% # Class of committed instruction
system.cpu0.commit.op_class_0::SimdDiv              0      0.00%     57.65% # Class of committed instruction
system.cpu0.commit.op_class_0::SimdSqrt             0      0.00%     57.65% # Class of committed instruction
system.cpu0.commit.op_class_0::SimdFloatAdd            0      0.00%     57.65% # Class of committed instruction
system.cpu0.commit.op_class_0::SimdFloatAlu            0      0.00%     57.65% # Class of committed instruction
system.cpu0.commit.op_class_0::SimdFloatCmp            0      0.00%     57.65% # Class of committed instruction
system.cpu0.commit.op_class_0::SimdFloatCvt            0      0.00%     57.65% # Class of committed instruction
system.cpu0.commit.op_class_0::SimdFloatDiv            0      0.00%     57.65% # Class of committed instruction
system.cpu0.commit.op_class_0::SimdFloatMisc            0      0.00%     57.65% # Class of committed instruction
system.cpu0.commit.op_class_0::SimdFloatMult            0      0.00%     57.65% # Class of committed instruction
system.cpu0.commit.op_class_0::SimdFloatMultAcc            0      0.00%     57.65% # Class of committed instruction
system.cpu0.commit.op_class_0::SimdFloatSqrt            0      0.00%     57.65% # Class of committed instruction
system.cpu0.commit.op_class_0::SimdReduceAdd            0      0.00%     57.65% # Class of committed instruction
system.cpu0.commit.op_class_0::SimdReduceAlu            0      0.00%     57.65% # Class of committed instruction
system.cpu0.commit.op_class_0::SimdReduceCmp            0      0.00%     57.65% # Class of committed instruction
system.cpu0.commit.op_class_0::SimdFloatReduceAdd            0      0.00%     57.65% # Class of committed instruction
system.cpu0.commit.op_class_0::SimdFloatReduceCmp            0      0.00%     57.65% # Class of committed instruction
system.cpu0.commit.op_class_0::SimdAes              0      0.00%     57.65% # Class of committed instruction
system.cpu0.commit.op_class_0::SimdAesMix            0      0.00%     57.65% # Class of committed instruction
system.cpu0.commit.op_class_0::SimdSha1Hash            0      0.00%     57.65% # Class of committed instruction
system.cpu0.commit.op_class_0::SimdSha1Hash2            0      0.00%     57.65% # Class of committed instruction
system.cpu0.commit.op_class_0::SimdSha256Hash            0      0.00%     57.65% # Class of committed instruction
system.cpu0.commit.op_class_0::SimdSha256Hash2            0      0.00%     57.65% # Class of committed instruction
system.cpu0.commit.op_class_0::SimdShaSigma2            0      0.00%     57.65% # Class of committed instruction
system.cpu0.commit.op_class_0::SimdShaSigma3            0      0.00%     57.65% # Class of committed instruction
system.cpu0.commit.op_class_0::SimdPredAlu            0      0.00%     57.65% # Class of committed instruction
system.cpu0.commit.op_class_0::MemRead      407271432     30.89%     88.53% # Class of committed instruction
system.cpu0.commit.op_class_0::MemWrite     151184111     11.47%    100.00% # Class of committed instruction
system.cpu0.commit.op_class_0::FloatMemRead            8      0.00%    100.00% # Class of committed instruction
system.cpu0.commit.op_class_0::FloatMemWrite           16      0.00%    100.00% # Class of committed instruction
system.cpu0.commit.op_class_0::IprAccess            0      0.00%    100.00% # Class of committed instruction
system.cpu0.commit.op_class_0::InstPrefetch            0      0.00%    100.00% # Class of committed instruction
system.cpu0.commit.op_class_0::total       1318653780                       # Class of committed instruction
system.cpu0.commit.refs                     558455567                       # Number of memory references committed
system.cpu0.commit.swp_count                        0                       # Number of s/w prefetches committed
system.cpu0.commit.vec_insts                        0                       # Number of committed Vector instructions.
system.cpu0.committedInsts                 1316550193                       # Number of Instructions Simulated
system.cpu0.committedOps                   1318653780                       # Number of Ops (including micro ops) Simulated
system.cpu0.cpi                              1.900405                       # CPI: Cycles Per Instruction
system.cpu0.cpi_total                        1.900405                       # CPI: Total CPI of All Threads
system.cpu0.decode.BlockedCycles            453697943                       # Number of cycles decode is blocked
system.cpu0.decode.BranchMispred              6745387                       # Number of times decode detected a branch misprediction
system.cpu0.decode.BranchResolved           179348534                       # Number of times decode resolved a branch
system.cpu0.decode.DecodedInsts            1420455581                       # Number of instructions handled by decode
system.cpu0.decode.IdleCycles               903241235                       # Number of cycles decode is idle
system.cpu0.decode.RunCycles                972381160                       # Number of cycles decode is running
system.cpu0.decode.SquashCycles              10861352                       # Number of cycles decode is squashing
system.cpu0.decode.SquashedInsts             14413286                       # Number of squashed instructions handled by decode
system.cpu0.decode.UnblockCycles              6862928                       # Number of cycles decode is unblocking
system.cpu0.dtb.accesses                            0                       # DTB accesses
system.cpu0.dtb.hits                                0                       # DTB hits
system.cpu0.dtb.misses                              0                       # DTB misses
system.cpu0.dtb.read_accesses                       0                       # DTB read accesses
system.cpu0.dtb.read_hits                           0                       # DTB read hits
system.cpu0.dtb.read_misses                         0                       # DTB read misses
system.cpu0.dtb.write_accesses                      0                       # DTB write accesses
system.cpu0.dtb.write_hits                          0                       # DTB write hits
system.cpu0.dtb.write_misses                        0                       # DTB write misses
system.cpu0.fetch.Branches                  351134555                       # Number of branches that fetch encountered
system.cpu0.fetch.CacheLines                236871889                       # Number of cache lines fetched
system.cpu0.fetch.Cycles                   1434074706                       # Number of cycles fetch has run and was not squashing or blocked
system.cpu0.fetch.IcacheSquashes              4135447                       # Number of outstanding Icache misses that were squashed
system.cpu0.fetch.IcacheWaitRetryStallCycles           72                       # Number of stall cycles due to full MSHR
system.cpu0.fetch.Insts                    1448617364                       # Number of instructions fetch has processed
system.cpu0.fetch.MiscStallCycles                  10                       # Number of cycles fetch has spent waiting on interrupts, or bad addresses, or out of MSHRs
system.cpu0.fetch.PendingTrapStallCycles           18                       # Number of stall cycles due to pending traps
system.cpu0.fetch.SquashCycles               35206944                       # Number of cycles fetch has spent squashing
system.cpu0.fetch.branchRate                 0.140343                       # Number of branch fetches per cycle
system.cpu0.fetch.icacheStallCycles         895366340                       # Number of cycles fetch is stalled on an Icache miss
system.cpu0.fetch.predictedBranches         202883920                       # Number of branches that fetch has predicted taken
system.cpu0.fetch.rate                       0.578989                       # Number of inst fetches per cycle
system.cpu0.fetch.rateDist::samples        2347044618                       # Number of instructions fetched each cycle (Total)
system.cpu0.fetch.rateDist::mean             0.618106                       # Number of instructions fetched each cycle (Total)
system.cpu0.fetch.rateDist::stdev            0.904766                       # Number of instructions fetched each cycle (Total)
system.cpu0.fetch.rateDist::underflows              0      0.00%      0.00% # Number of instructions fetched each cycle (Total)
system.cpu0.fetch.rateDist::0              1327378625     56.56%     56.56% # Number of instructions fetched each cycle (Total)
system.cpu0.fetch.rateDist::1               756945709     32.25%     88.81% # Number of instructions fetched each cycle (Total)
system.cpu0.fetch.rateDist::2               138390250      5.90%     94.70% # Number of instructions fetched each cycle (Total)
system.cpu0.fetch.rateDist::3               101095127      4.31%     99.01% # Number of instructions fetched each cycle (Total)
system.cpu0.fetch.rateDist::4                13527002      0.58%     99.59% # Number of instructions fetched each cycle (Total)
system.cpu0.fetch.rateDist::5                 4951792      0.21%     99.80% # Number of instructions fetched each cycle (Total)
system.cpu0.fetch.rateDist::6                  552455      0.02%     99.82% # Number of instructions fetched each cycle (Total)
system.cpu0.fetch.rateDist::7                 2101231      0.09%     99.91% # Number of instructions fetched each cycle (Total)
system.cpu0.fetch.rateDist::8                 2102427      0.09%    100.00% # Number of instructions fetched each cycle (Total)
system.cpu0.fetch.rateDist::overflows               0      0.00%    100.00% # Number of instructions fetched each cycle (Total)
system.cpu0.fetch.rateDist::min_value               0                       # Number of instructions fetched each cycle (Total)
system.cpu0.fetch.rateDist::max_value               8                       # Number of instructions fetched each cycle (Total)
system.cpu0.fetch.rateDist::total          2347044618                       # Number of instructions fetched each cycle (Total)
system.cpu0.fp_regfile_reads                       40                       # number of floating regfile reads
system.cpu0.fp_regfile_writes                      22                       # number of floating regfile writes
system.cpu0.idleCycles                      154933483                       # Total number of cycles that the CPU has spent unscheduled due to idling
system.cpu0.iew.branchMispredicts            10960663                       # Number of branch mispredicts detected at execute
system.cpu0.iew.exec_branches               338560527                       # Number of branches executed
system.cpu0.iew.exec_nop                            0                       # number of nop insts executed
system.cpu0.iew.exec_rate                    0.550491                       # Inst execution rate
system.cpu0.iew.exec_refs                   594050262                       # number of memory reference insts executed
system.cpu0.iew.exec_stores                 158929138                       # Number of stores executed
system.cpu0.iew.exec_swp                            0                       # number of swp insts executed
system.cpu0.iew.iewBlockCycles              369411650                       # Number of cycles IEW is blocking
system.cpu0.iew.iewDispLoadInsts            435991629                       # Number of dispatched load instructions
system.cpu0.iew.iewDispNonSpecInsts           2106592                       # Number of dispatched non-speculative instructions
system.cpu0.iew.iewDispSquashedInsts          8537452                       # Number of squashed instructions skipped by dispatch
system.cpu0.iew.iewDispStoreInsts           159502174                       # Number of dispatched store instructions
system.cpu0.iew.iewDispatchedInsts         1388465698                       # Number of instructions dispatched to IQ
system.cpu0.iew.iewExecLoadInsts            435121124                       # Number of load instructions executed
system.cpu0.iew.iewExecSquashedInsts          4365038                       # Number of squashed instructions skipped in execute
system.cpu0.iew.iewExecutedInsts           1377316958                       # Number of executed instructions
system.cpu0.iew.iewIQFullEvents               1776283                       # Number of times the IQ has become full, causing a stall
system.cpu0.iew.iewIdleCycles                       0                       # Number of cycles IEW is idle
system.cpu0.iew.iewLSQFullEvents              9088005                       # Number of times the LSQ has become full, causing a stall
system.cpu0.iew.iewSquashCycles              10861352                       # Number of cycles IEW is squashing
system.cpu0.iew.iewUnblockCycles             13708885                       # Number of cycles IEW is unblocking
system.cpu0.iew.lsq.thread0.blockedLoads            0                       # Number of blocked loads due to partial load-store forwarding
system.cpu0.iew.lsq.thread0.cacheBlocked       189149                       # Number of times an access to memory failed due to the cache being blocked
system.cpu0.iew.lsq.thread0.forwLoads        25755069                       # Number of loads that had data forwarded from stores
system.cpu0.iew.lsq.thread0.ignoredResponses        53406                       # Number of memory responses ignored because the instruction is squashed
system.cpu0.iew.lsq.thread0.invAddrLoads            0                       # Number of loads ignored due to an invalid address
system.cpu0.iew.lsq.thread0.invAddrSwpfs            0                       # Number of software prefetches ignored due to an invalid address
system.cpu0.iew.lsq.thread0.memOrderViolation         7799                       # Number of memory ordering violations
system.cpu0.iew.lsq.thread0.rescheduledLoads      4663020                       # Number of loads that were rescheduled
system.cpu0.iew.lsq.thread0.squashedLoads     30820482                       # Number of loads squashed
system.cpu0.iew.lsq.thread0.squashedStores      6217753                       # Number of stores squashed
system.cpu0.iew.memOrderViolationEvents          7799                       # Number of memory order violations
system.cpu0.iew.predictedNotTakenIncorrect       743318                       # Number of branches that were predicted not taken incorrectly
system.cpu0.iew.predictedTakenIncorrect      10217345                       # Number of branches that were predicted taken incorrectly
system.cpu0.iew.wb_consumers                637470802                       # num instructions consuming a value
system.cpu0.iew.wb_count                   1366787112                       # cumulative count of insts written-back
system.cpu0.iew.wb_fanout                    0.831799                       # average fanout of values written-back
system.cpu0.iew.wb_producers                530247774                       # num instructions producing a value
system.cpu0.iew.wb_rate                      0.546283                       # insts written-back per cycle
system.cpu0.iew.wb_sent                    1366896772                       # cumulative count of insts sent to commit
system.cpu0.int_regfile_reads              1691341199                       # number of integer regfile reads
system.cpu0.int_regfile_writes              879128970                       # number of integer regfile writes
system.cpu0.ipc                              0.526204                       # IPC: Instructions Per Cycle
system.cpu0.ipc_total                        0.526204                       # IPC: Total IPC of All Threads
system.cpu0.iq.FU_type_0::No_OpClass          4205631      0.30%      0.30% # Type of FU issued
system.cpu0.iq.FU_type_0::IntAlu            767738649     55.57%     55.87% # Type of FU issued
system.cpu0.iq.FU_type_0::IntMult            11846970      0.86%     56.73% # Type of FU issued
system.cpu0.iq.FU_type_0::IntDiv              2100419      0.15%     56.88% # Type of FU issued
system.cpu0.iq.FU_type_0::FloatAdd                  0      0.00%     56.88% # Type of FU issued
system.cpu0.iq.FU_type_0::FloatCmp                  4      0.00%     56.88% # Type of FU issued
system.cpu0.iq.FU_type_0::FloatCvt                 12      0.00%     56.88% # Type of FU issued
system.cpu0.iq.FU_type_0::FloatMult                 0      0.00%     56.88% # Type of FU issued
system.cpu0.iq.FU_type_0::FloatMultAcc              0      0.00%     56.88% # Type of FU issued
system.cpu0.iq.FU_type_0::FloatDiv                  2      0.00%     56.88% # Type of FU issued
system.cpu0.iq.FU_type_0::FloatMisc                 4      0.00%     56.88% # Type of FU issued
system.cpu0.iq.FU_type_0::FloatSqrt                 0      0.00%     56.88% # Type of FU issued
system.cpu0.iq.FU_type_0::SimdAdd                   0      0.00%     56.88% # Type of FU issued
system.cpu0.iq.FU_type_0::SimdAddAcc                0      0.00%     56.88% # Type of FU issued
system.cpu0.iq.FU_type_0::SimdAlu                   0      0.00%     56.88% # Type of FU issued
system.cpu0.iq.FU_type_0::SimdCmp                   0      0.00%     56.88% # Type of FU issued
system.cpu0.iq.FU_type_0::SimdCvt                   0      0.00%     56.88% # Type of FU issued
system.cpu0.iq.FU_type_0::SimdMisc                  0      0.00%     56.88% # Type of FU issued
system.cpu0.iq.FU_type_0::SimdMult                  0      0.00%     56.88% # Type of FU issued
system.cpu0.iq.FU_type_0::SimdMultAcc               0      0.00%     56.88% # Type of FU issued
system.cpu0.iq.FU_type_0::SimdShift                 0      0.00%     56.88% # Type of FU issued
system.cpu0.iq.FU_type_0::SimdShiftAcc              0      0.00%     56.88% # Type of FU issued
system.cpu0.iq.FU_type_0::SimdDiv                   0      0.00%     56.88% # Type of FU issued
system.cpu0.iq.FU_type_0::SimdSqrt                  0      0.00%     56.88% # Type of FU issued
system.cpu0.iq.FU_type_0::SimdFloatAdd              0      0.00%     56.88% # Type of FU issued
system.cpu0.iq.FU_type_0::SimdFloatAlu              0      0.00%     56.88% # Type of FU issued
system.cpu0.iq.FU_type_0::SimdFloatCmp              0      0.00%     56.88% # Type of FU issued
system.cpu0.iq.FU_type_0::SimdFloatCvt              0      0.00%     56.88% # Type of FU issued
system.cpu0.iq.FU_type_0::SimdFloatDiv              0      0.00%     56.88% # Type of FU issued
system.cpu0.iq.FU_type_0::SimdFloatMisc             0      0.00%     56.88% # Type of FU issued
system.cpu0.iq.FU_type_0::SimdFloatMult             0      0.00%     56.88% # Type of FU issued
system.cpu0.iq.FU_type_0::SimdFloatMultAcc            0      0.00%     56.88% # Type of FU issued
system.cpu0.iq.FU_type_0::SimdFloatSqrt             0      0.00%     56.88% # Type of FU issued
system.cpu0.iq.FU_type_0::SimdReduceAdd             0      0.00%     56.88% # Type of FU issued
system.cpu0.iq.FU_type_0::SimdReduceAlu             0      0.00%     56.88% # Type of FU issued
system.cpu0.iq.FU_type_0::SimdReduceCmp             0      0.00%     56.88% # Type of FU issued
system.cpu0.iq.FU_type_0::SimdFloatReduceAdd            0      0.00%     56.88% # Type of FU issued
system.cpu0.iq.FU_type_0::SimdFloatReduceCmp            0      0.00%     56.88% # Type of FU issued
system.cpu0.iq.FU_type_0::SimdAes                   0      0.00%     56.88% # Type of FU issued
system.cpu0.iq.FU_type_0::SimdAesMix                0      0.00%     56.88% # Type of FU issued
system.cpu0.iq.FU_type_0::SimdSha1Hash              0      0.00%     56.88% # Type of FU issued
system.cpu0.iq.FU_type_0::SimdSha1Hash2             0      0.00%     56.88% # Type of FU issued
system.cpu0.iq.FU_type_0::SimdSha256Hash            0      0.00%     56.88% # Type of FU issued
system.cpu0.iq.FU_type_0::SimdSha256Hash2            0      0.00%     56.88% # Type of FU issued
system.cpu0.iq.FU_type_0::SimdShaSigma2             0      0.00%     56.88% # Type of FU issued
system.cpu0.iq.FU_type_0::SimdShaSigma3             0      0.00%     56.88% # Type of FU issued
system.cpu0.iq.FU_type_0::SimdPredAlu               0      0.00%     56.88% # Type of FU issued
system.cpu0.iq.FU_type_0::MemRead           438835501     31.76%     88.64% # Type of FU issued
system.cpu0.iq.FU_type_0::MemWrite          156954782     11.36%    100.00% # Type of FU issued
system.cpu0.iq.FU_type_0::FloatMemRead              8      0.00%    100.00% # Type of FU issued
system.cpu0.iq.FU_type_0::FloatMemWrite            16      0.00%    100.00% # Type of FU issued
system.cpu0.iq.FU_type_0::IprAccess                 0      0.00%    100.00% # Type of FU issued
system.cpu0.iq.FU_type_0::InstPrefetch              0      0.00%    100.00% # Type of FU issued
system.cpu0.iq.FU_type_0::total            1381681998                       # Type of FU issued
system.cpu0.iq.fp_alu_accesses                     49                       # Number of floating point alu accesses
system.cpu0.iq.fp_inst_queue_reads                 95                       # Number of floating instruction queue reads
system.cpu0.iq.fp_inst_queue_wakeup_accesses           46                       # Number of floating instruction queue wakeup accesses
system.cpu0.iq.fp_inst_queue_writes                46                       # Number of floating instruction queue writes
system.cpu0.iq.fu_busy_cnt                    3611854                       # FU busy when requested
system.cpu0.iq.fu_busy_rate                  0.002614                       # FU busy rate (busy events/executed inst)
system.cpu0.iq.fu_full::No_OpClass                  0      0.00%      0.00% # attempts to use FU when none available
system.cpu0.iq.fu_full::IntAlu                1181166     32.70%     32.70% # attempts to use FU when none available
system.cpu0.iq.fu_full::IntMult                     0      0.00%     32.70% # attempts to use FU when none available
system.cpu0.iq.fu_full::IntDiv                      0      0.00%     32.70% # attempts to use FU when none available
system.cpu0.iq.fu_full::FloatAdd                    0      0.00%     32.70% # attempts to use FU when none available
system.cpu0.iq.fu_full::FloatCmp                    0      0.00%     32.70% # attempts to use FU when none available
system.cpu0.iq.fu_full::FloatCvt                    0      0.00%     32.70% # attempts to use FU when none available
system.cpu0.iq.fu_full::FloatMult                   0      0.00%     32.70% # attempts to use FU when none available
system.cpu0.iq.fu_full::FloatMultAcc                0      0.00%     32.70% # attempts to use FU when none available
system.cpu0.iq.fu_full::FloatDiv                    0      0.00%     32.70% # attempts to use FU when none available
system.cpu0.iq.fu_full::FloatMisc                   0      0.00%     32.70% # attempts to use FU when none available
system.cpu0.iq.fu_full::FloatSqrt                   0      0.00%     32.70% # attempts to use FU when none available
system.cpu0.iq.fu_full::SimdAdd                     0      0.00%     32.70% # attempts to use FU when none available
system.cpu0.iq.fu_full::SimdAddAcc                  0      0.00%     32.70% # attempts to use FU when none available
system.cpu0.iq.fu_full::SimdAlu                     0      0.00%     32.70% # attempts to use FU when none available
system.cpu0.iq.fu_full::SimdCmp                     0      0.00%     32.70% # attempts to use FU when none available
system.cpu0.iq.fu_full::SimdCvt                     0      0.00%     32.70% # attempts to use FU when none available
system.cpu0.iq.fu_full::SimdMisc                    0      0.00%     32.70% # attempts to use FU when none available
system.cpu0.iq.fu_full::SimdMult                    0      0.00%     32.70% # attempts to use FU when none available
system.cpu0.iq.fu_full::SimdMultAcc                 0      0.00%     32.70% # attempts to use FU when none available
system.cpu0.iq.fu_full::SimdShift                   0      0.00%     32.70% # attempts to use FU when none available
system.cpu0.iq.fu_full::SimdShiftAcc                0      0.00%     32.70% # attempts to use FU when none available
system.cpu0.iq.fu_full::SimdDiv                     0      0.00%     32.70% # attempts to use FU when none available
system.cpu0.iq.fu_full::SimdSqrt                    0      0.00%     32.70% # attempts to use FU when none available
system.cpu0.iq.fu_full::SimdFloatAdd                0      0.00%     32.70% # attempts to use FU when none available
system.cpu0.iq.fu_full::SimdFloatAlu                0      0.00%     32.70% # attempts to use FU when none available
system.cpu0.iq.fu_full::SimdFloatCmp                0      0.00%     32.70% # attempts to use FU when none available
system.cpu0.iq.fu_full::SimdFloatCvt                0      0.00%     32.70% # attempts to use FU when none available
system.cpu0.iq.fu_full::SimdFloatDiv                0      0.00%     32.70% # attempts to use FU when none available
system.cpu0.iq.fu_full::SimdFloatMisc               0      0.00%     32.70% # attempts to use FU when none available
system.cpu0.iq.fu_full::SimdFloatMult               0      0.00%     32.70% # attempts to use FU when none available
system.cpu0.iq.fu_full::SimdFloatMultAcc            0      0.00%     32.70% # attempts to use FU when none available
system.cpu0.iq.fu_full::SimdFloatSqrt               0      0.00%     32.70% # attempts to use FU when none available
system.cpu0.iq.fu_full::SimdReduceAdd               0      0.00%     32.70% # attempts to use FU when none available
system.cpu0.iq.fu_full::SimdReduceAlu               0      0.00%     32.70% # attempts to use FU when none available
system.cpu0.iq.fu_full::SimdReduceCmp               0      0.00%     32.70% # attempts to use FU when none available
system.cpu0.iq.fu_full::SimdFloatReduceAdd            0      0.00%     32.70% # attempts to use FU when none available
system.cpu0.iq.fu_full::SimdFloatReduceCmp            0      0.00%     32.70% # attempts to use FU when none available
system.cpu0.iq.fu_full::SimdAes                     0      0.00%     32.70% # attempts to use FU when none available
system.cpu0.iq.fu_full::SimdAesMix                  0      0.00%     32.70% # attempts to use FU when none available
system.cpu0.iq.fu_full::SimdSha1Hash                0      0.00%     32.70% # attempts to use FU when none available
system.cpu0.iq.fu_full::SimdSha1Hash2               0      0.00%     32.70% # attempts to use FU when none available
system.cpu0.iq.fu_full::SimdSha256Hash              0      0.00%     32.70% # attempts to use FU when none available
system.cpu0.iq.fu_full::SimdSha256Hash2             0      0.00%     32.70% # attempts to use FU when none available
system.cpu0.iq.fu_full::SimdShaSigma2               0      0.00%     32.70% # attempts to use FU when none available
system.cpu0.iq.fu_full::SimdShaSigma3               0      0.00%     32.70% # attempts to use FU when none available
system.cpu0.iq.fu_full::SimdPredAlu                 0      0.00%     32.70% # attempts to use FU when none available
system.cpu0.iq.fu_full::MemRead               1954220     54.11%     86.81% # attempts to use FU when none available
system.cpu0.iq.fu_full::MemWrite               476465     13.19%    100.00% # attempts to use FU when none available
system.cpu0.iq.fu_full::FloatMemRead                0      0.00%    100.00% # attempts to use FU when none available
system.cpu0.iq.fu_full::FloatMemWrite               3      0.00%    100.00% # attempts to use FU when none available
system.cpu0.iq.fu_full::IprAccess                   0      0.00%    100.00% # attempts to use FU when none available
system.cpu0.iq.fu_full::InstPrefetch                0      0.00%    100.00% # attempts to use FU when none available
system.cpu0.iq.int_alu_accesses            1381088172                       # Number of integer alu accesses
system.cpu0.iq.int_inst_queue_reads        5114247845                       # Number of integer instruction queue reads
system.cpu0.iq.int_inst_queue_wakeup_accesses   1366787066                       # Number of integer instruction queue wakeup accesses
system.cpu0.iq.int_inst_queue_writes       1458284921                       # Number of integer instruction queue writes
system.cpu0.iq.iqInstsAdded                1382155125                       # Number of instructions added to the IQ (excludes non-spec)
system.cpu0.iq.iqInstsIssued               1381681998                       # Number of instructions issued
system.cpu0.iq.iqNonSpecInstsAdded            6310573                       # Number of non-speculative instructions added to the IQ
system.cpu0.iq.iqSquashedInstsExamined       69811911                       # Number of squashed instructions iterated over during squash; mainly for profiling
system.cpu0.iq.iqSquashedInstsIssued           227474                       # Number of squashed instructions issued
system.cpu0.iq.iqSquashedNonSpecRemoved           777                       # Number of squashed non-spec instructions that were removed
system.cpu0.iq.iqSquashedOperandsExamined     22889517                       # Number of squashed operands that are examined and possibly removed from graph
system.cpu0.iq.issued_per_cycle::samples   2347044618                       # Number of insts issued each cycle
system.cpu0.iq.issued_per_cycle::mean        0.588690                       # Number of insts issued each cycle
system.cpu0.iq.issued_per_cycle::stdev       0.853215                       # Number of insts issued each cycle
system.cpu0.iq.issued_per_cycle::underflows            0      0.00%      0.00% # Number of insts issued each cycle
system.cpu0.iq.issued_per_cycle::0         1377179671     58.68%     58.68% # Number of insts issued each cycle
system.cpu0.iq.issued_per_cycle::1          668369065     28.48%     87.15% # Number of insts issued each cycle
system.cpu0.iq.issued_per_cycle::2          220057494      9.38%     96.53% # Number of insts issued each cycle
system.cpu0.iq.issued_per_cycle::3           64193423      2.74%     99.27% # Number of insts issued each cycle
system.cpu0.iq.issued_per_cycle::4           11149584      0.48%     99.74% # Number of insts issued each cycle
system.cpu0.iq.issued_per_cycle::5            2239044      0.10%     99.84% # Number of insts issued each cycle
system.cpu0.iq.issued_per_cycle::6            2428587      0.10%     99.94% # Number of insts issued each cycle
system.cpu0.iq.issued_per_cycle::7            1169402      0.05%     99.99% # Number of insts issued each cycle
system.cpu0.iq.issued_per_cycle::8             258348      0.01%    100.00% # Number of insts issued each cycle
system.cpu0.iq.issued_per_cycle::overflows            0      0.00%    100.00% # Number of insts issued each cycle
system.cpu0.iq.issued_per_cycle::min_value            0                       # Number of insts issued each cycle
system.cpu0.iq.issued_per_cycle::max_value            8                       # Number of insts issued each cycle
system.cpu0.iq.issued_per_cycle::total     2347044618                       # Number of insts issued each cycle
system.cpu0.iq.rate                          0.552236                       # Inst issue rate
system.cpu0.iq.vec_alu_accesses                     0                       # Number of vector alu accesses
system.cpu0.iq.vec_inst_queue_reads                 0                       # Number of vector instruction queue reads
system.cpu0.iq.vec_inst_queue_wakeup_accesses            0                       # Number of vector instruction queue wakeup accesses
system.cpu0.iq.vec_inst_queue_writes                0                       # Number of vector instruction queue writes
system.cpu0.itb.accesses                            0                       # DTB accesses
system.cpu0.itb.hits                                0                       # DTB hits
system.cpu0.itb.misses                              0                       # DTB misses
system.cpu0.itb.read_accesses                       0                       # DTB read accesses
system.cpu0.itb.read_hits                           0                       # DTB read hits
system.cpu0.itb.read_misses                         0                       # DTB read misses
system.cpu0.itb.write_accesses                      0                       # DTB write accesses
system.cpu0.itb.write_hits                          0                       # DTB write hits
system.cpu0.itb.write_misses                        0                       # DTB write misses
system.cpu0.memDep0.conflictingLoads         19961742                       # Number of conflicting loads.
system.cpu0.memDep0.conflictingStores         1469279                       # Number of conflicting stores.
system.cpu0.memDep0.insertedLoads           435991629                       # Number of loads inserted to the mem dependence unit.
system.cpu0.memDep0.insertedStores          159502174                       # Number of stores inserted to the mem dependence unit.
system.cpu0.misc_regfile_reads                   1897                       # number of misc regfile reads
system.cpu0.misc_regfile_writes                    22                       # number of misc regfile writes
system.cpu0.numCycles                      2501978101                       # number of cpu cycles simulated
system.cpu0.numWorkItemsCompleted                   0                       # number of work items this cpu completed
system.cpu0.numWorkItemsStarted                     0                       # number of work items this cpu started
system.cpu0.quiesceCycles                     7088213                       # Total number of cycles that CPU has spent quiesced or waiting for an interrupt
system.cpu0.rename.BlockCycles              397527459                       # Number of cycles rename is blocking
system.cpu0.rename.CommittedMaps            845197184                       # Number of HB maps that are committed
system.cpu0.rename.IQFullEvents              14241406                       # Number of times rename has blocked due to IQ full
system.cpu0.rename.IdleCycles               918192875                       # Number of cycles rename is idle
system.cpu0.rename.LQFullEvents              14598474                       # Number of times rename has blocked due to LQ full
system.cpu0.rename.ROBFullEvents                22209                       # Number of times rename has blocked due to ROB full
system.cpu0.rename.RenameLookups           1731267910                       # Number of register rename lookups that rename has made
system.cpu0.rename.RenamedInsts            1409587916                       # Number of instructions processed by rename
system.cpu0.rename.RenamedOperands          914123936                       # Number of destination operands rename has renamed
system.cpu0.rename.RunCycles                962724639                       # Number of cycles rename is running
system.cpu0.rename.SQFullEvents              27995375                       # Number of times rename has blocked due to SQ full
system.cpu0.rename.SquashCycles              10861352                       # Number of cycles rename is squashing
system.cpu0.rename.UnblockCycles             57577121                       # Number of cycles rename is unblocking
system.cpu0.rename.UndoneMaps                68926741                       # Number of HB maps that are undone due to squashing
system.cpu0.rename.fp_rename_lookups               40                       # Number of floating rename lookups
system.cpu0.rename.int_rename_lookups      1731267870                       # Number of integer rename lookups
system.cpu0.rename.serializeStallCycles        161172                       # count of cycles rename stalled for serializing inst
system.cpu0.rename.serializingInsts              5869                       # count of serializing insts renamed
system.cpu0.rename.skidInsts                 33430407                       # count of insts added to the skid buffer
system.cpu0.rename.tempSerializingInsts          5866                       # count of temporary serializing insts renamed
system.cpu0.rob.rob_reads                  3679653689                       # The number of ROB reads
system.cpu0.rob.rob_writes                 2793786356                       # The number of ROB writes
system.cpu0.timesIdled                       25182629                       # Number of times that the entire CPU went into an idle state and unscheduled itself
system.cpu0.workload.numSyscalls                 1864                       # Number of system calls
system.cpu1.branchPred.BTBCorrect                   0                       # Number of correct BTB predictions (this stat may not work properly.
system.cpu1.branchPred.BTBHitPct            82.977325                       # BTB Hit Percentage
system.cpu1.branchPred.BTBHits               20831869                       # Number of BTB hits
system.cpu1.branchPred.BTBLookups            25105496                       # Number of BTB lookups
system.cpu1.branchPred.RASInCorrect                 0                       # Number of incorrect RAS predictions.
system.cpu1.branchPred.condIncorrect          2778667                       # Number of conditional branches incorrect
system.cpu1.branchPred.condPredicted         30985703                       # Number of conditional branches predicted
system.cpu1.branchPred.indirectHits           1075202                       # Number of indirect target hits.
system.cpu1.branchPred.indirectLookups        1099963                       # Number of indirect predictor lookups.
system.cpu1.branchPred.indirectMisses           24761                       # Number of indirect misses.
system.cpu1.branchPred.lookups               35567826                       # Number of BP lookups
system.cpu1.branchPred.usedRAS                      0                       # Number of times the RAS was used to get a target.
system.cpu1.branchPredindirectMispredicted        47870                       # Number of mispredicted indirect branches.
system.cpu1.commit.amos                       2099996                       # Number of atomic instructions committed
system.cpu1.commit.branchMispredicts          1980048                       # The number of times a branch was mispredicted
system.cpu1.commit.branches                  28115883                       # Number of branches committed
system.cpu1.commit.bw_lim_events              3913558                       # number cycles where commit BW limit reached
system.cpu1.commit.commitNonSpecStalls        6300657                       # The number of times commit has been forced to stall to communicate backwards
system.cpu1.commit.commitSquashedInsts       16471121                       # The number of squashed insts skipped by commit
system.cpu1.commit.committedInsts           120047939                       # Number of instructions committed
system.cpu1.commit.committedOps             122148110                       # Number of ops (including micro ops) committed
system.cpu1.commit.committed_per_cycle::samples    470253760                       # Number of insts commited each cycle
system.cpu1.commit.committed_per_cycle::mean     0.259749                       # Number of insts commited each cycle
system.cpu1.commit.committed_per_cycle::stdev     1.022659                       # Number of insts commited each cycle
system.cpu1.commit.committed_per_cycle::underflows            0      0.00%      0.00% # Number of insts commited each cycle
system.cpu1.commit.committed_per_cycle::0    420731490     89.47%     89.47% # Number of insts commited each cycle
system.cpu1.commit.committed_per_cycle::1     24881760      5.29%     94.76% # Number of insts commited each cycle
system.cpu1.commit.committed_per_cycle::2      7902246      1.68%     96.44% # Number of insts commited each cycle
system.cpu1.commit.committed_per_cycle::3      7458187      1.59%     98.03% # Number of insts commited each cycle
system.cpu1.commit.committed_per_cycle::4      2025878      0.43%     98.46% # Number of insts commited each cycle
system.cpu1.commit.committed_per_cycle::5       782939      0.17%     98.62% # Number of insts commited each cycle
system.cpu1.commit.committed_per_cycle::6      2143288      0.46%     99.08% # Number of insts commited each cycle
system.cpu1.commit.committed_per_cycle::7       414414      0.09%     99.17% # Number of insts commited each cycle
system.cpu1.commit.committed_per_cycle::8      3913558      0.83%    100.00% # Number of insts commited each cycle
system.cpu1.commit.committed_per_cycle::overflows            0      0.00%    100.00% # Number of insts commited each cycle
system.cpu1.commit.committed_per_cycle::min_value            0                       # Number of insts commited each cycle
system.cpu1.commit.committed_per_cycle::max_value            8                       # Number of insts commited each cycle
system.cpu1.commit.committed_per_cycle::total    470253760                       # Number of insts commited each cycle
system.cpu1.commit.fp_insts                        12                       # Number of committed floating point instructions.
system.cpu1.commit.function_calls             1797505                       # Number of function calls committed.
system.cpu1.commit.int_insts                116585534                       # Number of committed integer instructions.
system.cpu1.commit.loads                     30173150                       # Number of loads committed
system.cpu1.commit.membars                    4200107                       # Number of memory barriers committed
system.cpu1.commit.op_class_0::No_OpClass      4200107      3.44%      3.44% # Class of committed instruction
system.cpu1.commit.op_class_0::IntAlu        76656049     62.76%     66.20% # Class of committed instruction
system.cpu1.commit.op_class_0::IntMult             44      0.00%     66.20% # Class of committed instruction
system.cpu1.commit.op_class_0::IntDiv              88      0.00%     66.20% # Class of committed instruction
system.cpu1.commit.op_class_0::FloatAdd             0      0.00%     66.20% # Class of committed instruction
system.cpu1.commit.op_class_0::FloatCmp             0      0.00%     66.20% # Class of committed instruction
system.cpu1.commit.op_class_0::FloatCvt             0      0.00%     66.20% # Class of committed instruction
system.cpu1.commit.op_class_0::FloatMult            0      0.00%     66.20% # Class of committed instruction
system.cpu1.commit.op_class_0::FloatMultAcc            0      0.00%     66.20% # Class of committed instruction
system.cpu1.commit.op_class_0::FloatDiv             0      0.00%     66.20% # Class of committed instruction
system.cpu1.commit.op_class_0::FloatMisc            0      0.00%     66.20% # Class of committed instruction
system.cpu1.commit.op_class_0::FloatSqrt            0      0.00%     66.20% # Class of committed instruction
system.cpu1.commit.op_class_0::SimdAdd              0      0.00%     66.20% # Class of committed instruction
system.cpu1.commit.op_class_0::SimdAddAcc            0      0.00%     66.20% # Class of committed instruction
system.cpu1.commit.op_class_0::SimdAlu              0      0.00%     66.20% # Class of committed instruction
system.cpu1.commit.op_class_0::SimdCmp              0      0.00%     66.20% # Class of committed instruction
system.cpu1.commit.op_class_0::SimdCvt              0      0.00%     66.20% # Class of committed instruction
system.cpu1.commit.op_class_0::SimdMisc             0      0.00%     66.20% # Class of committed instruction
system.cpu1.commit.op_class_0::SimdMult             0      0.00%     66.20% # Class of committed instruction
system.cpu1.commit.op_class_0::SimdMultAcc            0      0.00%     66.20% # Class of committed instruction
system.cpu1.commit.op_class_0::SimdShift            0      0.00%     66.20% # Class of committed instruction
system.cpu1.commit.op_class_0::SimdShiftAcc            0      0.00%     66.20% # Class of committed instruction
system.cpu1.commit.op_class_0::SimdDiv              0      0.00%     66.20% # Class of committed instruction
system.cpu1.commit.op_class_0::SimdSqrt             0      0.00%     66.20% # Class of committed instruction
system.cpu1.commit.op_class_0::SimdFloatAdd            0      0.00%     66.20% # Class of committed instruction
system.cpu1.commit.op_class_0::SimdFloatAlu            0      0.00%     66.20% # Class of committed instruction
system.cpu1.commit.op_class_0::SimdFloatCmp            0      0.00%     66.20% # Class of committed instruction
system.cpu1.commit.op_class_0::SimdFloatCvt            0      0.00%     66.20% # Class of committed instruction
system.cpu1.commit.op_class_0::SimdFloatDiv            0      0.00%     66.20% # Class of committed instruction
system.cpu1.commit.op_class_0::SimdFloatMisc            0      0.00%     66.20% # Class of committed instruction
system.cpu1.commit.op_class_0::SimdFloatMult            0      0.00%     66.20% # Class of committed instruction
system.cpu1.commit.op_class_0::SimdFloatMultAcc            0      0.00%     66.20% # Class of committed instruction
system.cpu1.commit.op_class_0::SimdFloatSqrt            0      0.00%     66.20% # Class of committed instruction
system.cpu1.commit.op_class_0::SimdReduceAdd            0      0.00%     66.20% # Class of committed instruction
system.cpu1.commit.op_class_0::SimdReduceAlu            0      0.00%     66.20% # Class of committed instruction
system.cpu1.commit.op_class_0::SimdReduceCmp            0      0.00%     66.20% # Class of committed instruction
system.cpu1.commit.op_class_0::SimdFloatReduceAdd            0      0.00%     66.20% # Class of committed instruction
system.cpu1.commit.op_class_0::SimdFloatReduceCmp            0      0.00%     66.20% # Class of committed instruction
system.cpu1.commit.op_class_0::SimdAes              0      0.00%     66.20% # Class of committed instruction
system.cpu1.commit.op_class_0::SimdAesMix            0      0.00%     66.20% # Class of committed instruction
system.cpu1.commit.op_class_0::SimdSha1Hash            0      0.00%     66.20% # Class of committed instruction
system.cpu1.commit.op_class_0::SimdSha1Hash2            0      0.00%     66.20% # Class of committed instruction
system.cpu1.commit.op_class_0::SimdSha256Hash            0      0.00%     66.20% # Class of committed instruction
system.cpu1.commit.op_class_0::SimdSha256Hash2            0      0.00%     66.20% # Class of committed instruction
system.cpu1.commit.op_class_0::SimdShaSigma2            0      0.00%     66.20% # Class of committed instruction
system.cpu1.commit.op_class_0::SimdShaSigma3            0      0.00%     66.20% # Class of committed instruction
system.cpu1.commit.op_class_0::SimdPredAlu            0      0.00%     66.20% # Class of committed instruction
system.cpu1.commit.op_class_0::MemRead       32273146     26.42%     92.62% # Class of committed instruction
system.cpu1.commit.op_class_0::MemWrite       9018664      7.38%    100.00% # Class of committed instruction
system.cpu1.commit.op_class_0::FloatMemRead            0      0.00%    100.00% # Class of committed instruction
system.cpu1.commit.op_class_0::FloatMemWrite           12      0.00%    100.00% # Class of committed instruction
system.cpu1.commit.op_class_0::IprAccess            0      0.00%    100.00% # Class of committed instruction
system.cpu1.commit.op_class_0::InstPrefetch            0      0.00%    100.00% # Class of committed instruction
system.cpu1.commit.op_class_0::total        122148110                       # Class of committed instruction
system.cpu1.commit.refs                      41291822                       # Number of memory references committed
system.cpu1.commit.swp_count                        0                       # Number of s/w prefetches committed
system.cpu1.commit.vec_insts                        0                       # Number of committed Vector instructions.
system.cpu1.committedInsts                  120047939                       # Number of Instructions Simulated
system.cpu1.committedOps                    122148110                       # Number of Ops (including micro ops) Simulated
system.cpu1.cpi                              3.951518                       # CPI: Cycles Per Instruction
system.cpu1.cpi_total                        3.951518                       # CPI: Total CPI of All Threads
system.cpu1.decode.BlockedCycles            379226413                       # Number of cycles decode is blocked
system.cpu1.decode.BranchMispred               801659                       # Number of times decode detected a branch misprediction
system.cpu1.decode.BranchResolved            19766968                       # Number of times decode resolved a branch
system.cpu1.decode.DecodedInsts             146099062                       # Number of instructions handled by decode
system.cpu1.decode.IdleCycles                22200818                       # Number of cycles decode is idle
system.cpu1.decode.RunCycles                 65100160                       # Number of cycles decode is running
system.cpu1.decode.SquashCycles               1981600                       # Number of cycles decode is squashing
system.cpu1.decode.SquashedInsts              1340108                       # Number of squashed instructions handled by decode
system.cpu1.decode.UnblockCycles              5105858                       # Number of cycles decode is unblocking
system.cpu1.dtb.accesses                            0                       # DTB accesses
system.cpu1.dtb.hits                                0                       # DTB hits
system.cpu1.dtb.misses                              0                       # DTB misses
system.cpu1.dtb.read_accesses                       0                       # DTB read accesses
system.cpu1.dtb.read_hits                           0                       # DTB read hits
system.cpu1.dtb.read_misses                         0                       # DTB read misses
system.cpu1.dtb.write_accesses                      0                       # DTB write accesses
system.cpu1.dtb.write_hits                          0                       # DTB write hits
system.cpu1.dtb.write_misses                        0                       # DTB write misses
system.cpu1.fetch.Branches                   35567826                       # Number of branches that fetch encountered
system.cpu1.fetch.CacheLines                 20865545                       # Number of cache lines fetched
system.cpu1.fetch.Cycles                    448037328                       # Number of cycles fetch has run and was not squashing or blocked
system.cpu1.fetch.IcacheSquashes               400804                       # Number of outstanding Icache misses that were squashed
system.cpu1.fetch.Insts                     151330472                       # Number of instructions fetch has processed
system.cpu1.fetch.MiscStallCycles                   1                       # Number of cycles fetch has spent waiting on interrupts, or bad addresses, or out of MSHRs
system.cpu1.fetch.SquashCycles                5560438                       # Number of cycles fetch has spent squashing
system.cpu1.fetch.branchRate                 0.074979                       # Number of branch fetches per cycle
system.cpu1.fetch.icacheStallCycles          22797301                       # Number of cycles fetch is stalled on an Icache miss
system.cpu1.fetch.predictedBranches          21907071                       # Number of branches that fetch has predicted taken
system.cpu1.fetch.rate                       0.319013                       # Number of inst fetches per cycle
system.cpu1.fetch.rateDist::samples         473614849                       # Number of instructions fetched each cycle (Total)
system.cpu1.fetch.rateDist::mean             0.323958                       # Number of instructions fetched each cycle (Total)
system.cpu1.fetch.rateDist::stdev            0.763087                       # Number of instructions fetched each cycle (Total)
system.cpu1.fetch.rateDist::underflows              0      0.00%      0.00% # Number of instructions fetched each cycle (Total)
system.cpu1.fetch.rateDist::0               376893065     79.58%     79.58% # Number of instructions fetched each cycle (Total)
system.cpu1.fetch.rateDist::1                62401743     13.18%     92.75% # Number of instructions fetched each cycle (Total)
system.cpu1.fetch.rateDist::2                17164266      3.62%     96.38% # Number of instructions fetched each cycle (Total)
system.cpu1.fetch.rateDist::3                13298713      2.81%     99.19% # Number of instructions fetched each cycle (Total)
system.cpu1.fetch.rateDist::4                 2801182      0.59%     99.78% # Number of instructions fetched each cycle (Total)
system.cpu1.fetch.rateDist::5                  735340      0.16%     99.93% # Number of instructions fetched each cycle (Total)
system.cpu1.fetch.rateDist::6                  320431      0.07%    100.00% # Number of instructions fetched each cycle (Total)
system.cpu1.fetch.rateDist::7                       8      0.00%    100.00% # Number of instructions fetched each cycle (Total)
system.cpu1.fetch.rateDist::8                     101      0.00%    100.00% # Number of instructions fetched each cycle (Total)
system.cpu1.fetch.rateDist::overflows               0      0.00%    100.00% # Number of instructions fetched each cycle (Total)
system.cpu1.fetch.rateDist::min_value               0                       # Number of instructions fetched each cycle (Total)
system.cpu1.fetch.rateDist::max_value               8                       # Number of instructions fetched each cycle (Total)
system.cpu1.fetch.rateDist::total           473614849                       # Number of instructions fetched each cycle (Total)
system.cpu1.fp_regfile_reads                       12                       # number of floating regfile reads
system.cpu1.idleCycles                         756688                       # Total number of cycles that the CPU has spent unscheduled due to idling
system.cpu1.iew.branchMispredicts             2053667                       # Number of branch mispredicts detected at execute
system.cpu1.iew.exec_branches                30590089                       # Number of branches executed
system.cpu1.iew.exec_nop                            0                       # number of nop insts executed
system.cpu1.iew.exec_rate                    0.281482                       # Inst execution rate
system.cpu1.iew.exec_refs                    45487338                       # number of memory reference insts executed
system.cpu1.iew.exec_stores                  11526343                       # Number of stores executed
system.cpu1.iew.exec_swp                            0                       # number of swp insts executed
system.cpu1.iew.iewBlockCycles              313822897                       # Number of cycles IEW is blocking
system.cpu1.iew.iewDispLoadInsts             34410033                       # Number of dispatched load instructions
system.cpu1.iew.iewDispNonSpecInsts           2100668                       # Number of dispatched non-speculative instructions
system.cpu1.iew.iewDispSquashedInsts          2350997                       # Number of squashed instructions skipped by dispatch
system.cpu1.iew.iewDispStoreInsts            11973954                       # Number of dispatched store instructions
system.cpu1.iew.iewDispatchedInsts          138582430                       # Number of instructions dispatched to IQ
system.cpu1.iew.iewExecLoadInsts             33960995                       # Number of load instructions executed
system.cpu1.iew.iewExecSquashedInsts          1895814                       # Number of squashed instructions skipped in execute
system.cpu1.iew.iewExecutedInsts            133527020                       # Number of executed instructions
system.cpu1.iew.iewIQFullEvents               1537429                       # Number of times the IQ has become full, causing a stall
system.cpu1.iew.iewIdleCycles                       0                       # Number of cycles IEW is idle
system.cpu1.iew.iewLSQFullEvents              6723001                       # Number of times the LSQ has become full, causing a stall
system.cpu1.iew.iewSquashCycles               1981600                       # Number of cycles IEW is squashing
system.cpu1.iew.iewUnblockCycles             10757546                       # Number of cycles IEW is unblocking
system.cpu1.iew.lsq.thread0.blockedLoads            0                       # Number of blocked loads due to partial load-store forwarding
system.cpu1.iew.lsq.thread0.cacheBlocked        98294                       # Number of times an access to memory failed due to the cache being blocked
system.cpu1.iew.lsq.thread0.forwLoads          964004                       # Number of loads that had data forwarded from stores
system.cpu1.iew.lsq.thread0.ignoredResponses        47826                       # Number of memory responses ignored because the instruction is squashed
system.cpu1.iew.lsq.thread0.invAddrLoads            0                       # Number of loads ignored due to an invalid address
system.cpu1.iew.lsq.thread0.invAddrSwpfs            0                       # Number of software prefetches ignored due to an invalid address
system.cpu1.iew.lsq.thread0.memOrderViolation         2102                       # Number of memory ordering violations
system.cpu1.iew.lsq.thread0.rescheduledLoads        17153                       # Number of loads that were rescheduled
system.cpu1.iew.lsq.thread0.squashedLoads      4236883                       # Number of loads squashed
system.cpu1.iew.lsq.thread0.squashedStores       855282                       # Number of stores squashed
system.cpu1.iew.memOrderViolationEvents          2102                       # Number of memory order violations
system.cpu1.iew.predictedNotTakenIncorrect       535519                       # Number of branches that were predicted not taken incorrectly
system.cpu1.iew.predictedTakenIncorrect       1518148                       # Number of branches that were predicted taken incorrectly
system.cpu1.iew.wb_consumers                 78645837                       # num instructions consuming a value
system.cpu1.iew.wb_count                    131915571                       # cumulative count of insts written-back
system.cpu1.iew.wb_fanout                    0.833389                       # average fanout of values written-back
system.cpu1.iew.wb_producers                 65542594                       # num instructions producing a value
system.cpu1.iew.wb_rate                      0.278085                       # insts written-back per cycle
system.cpu1.iew.wb_sent                     131984405                       # cumulative count of insts sent to commit
system.cpu1.int_regfile_reads               169357232                       # number of integer regfile reads
system.cpu1.int_regfile_writes               88790329                       # number of integer regfile writes
system.cpu1.ipc                              0.253067                       # IPC: Instructions Per Cycle
system.cpu1.ipc_total                        0.253067                       # IPC: Total IPC of All Threads
system.cpu1.iq.FU_type_0::No_OpClass          4200213      3.10%      3.10% # Type of FU issued
system.cpu1.iq.FU_type_0::IntAlu             85239161     62.94%     66.04% # Type of FU issued
system.cpu1.iq.FU_type_0::IntMult                  46      0.00%     66.04% # Type of FU issued
system.cpu1.iq.FU_type_0::IntDiv                   88      0.00%     66.04% # Type of FU issued
system.cpu1.iq.FU_type_0::FloatAdd                  0      0.00%     66.04% # Type of FU issued
system.cpu1.iq.FU_type_0::FloatCmp                  0      0.00%     66.04% # Type of FU issued
system.cpu1.iq.FU_type_0::FloatCvt                  0      0.00%     66.04% # Type of FU issued
system.cpu1.iq.FU_type_0::FloatMult                 0      0.00%     66.04% # Type of FU issued
system.cpu1.iq.FU_type_0::FloatMultAcc              0      0.00%     66.04% # Type of FU issued
system.cpu1.iq.FU_type_0::FloatDiv                  0      0.00%     66.04% # Type of FU issued
system.cpu1.iq.FU_type_0::FloatMisc                 0      0.00%     66.04% # Type of FU issued
system.cpu1.iq.FU_type_0::FloatSqrt                 0      0.00%     66.04% # Type of FU issued
system.cpu1.iq.FU_type_0::SimdAdd                   0      0.00%     66.04% # Type of FU issued
system.cpu1.iq.FU_type_0::SimdAddAcc                0      0.00%     66.04% # Type of FU issued
system.cpu1.iq.FU_type_0::SimdAlu                   0      0.00%     66.04% # Type of FU issued
system.cpu1.iq.FU_type_0::SimdCmp                   0      0.00%     66.04% # Type of FU issued
system.cpu1.iq.FU_type_0::SimdCvt                   0      0.00%     66.04% # Type of FU issued
system.cpu1.iq.FU_type_0::SimdMisc                  0      0.00%     66.04% # Type of FU issued
system.cpu1.iq.FU_type_0::SimdMult                  0      0.00%     66.04% # Type of FU issued
system.cpu1.iq.FU_type_0::SimdMultAcc               0      0.00%     66.04% # Type of FU issued
system.cpu1.iq.FU_type_0::SimdShift                 0      0.00%     66.04% # Type of FU issued
system.cpu1.iq.FU_type_0::SimdShiftAcc              0      0.00%     66.04% # Type of FU issued
system.cpu1.iq.FU_type_0::SimdDiv                   0      0.00%     66.04% # Type of FU issued
system.cpu1.iq.FU_type_0::SimdSqrt                  0      0.00%     66.04% # Type of FU issued
system.cpu1.iq.FU_type_0::SimdFloatAdd              0      0.00%     66.04% # Type of FU issued
system.cpu1.iq.FU_type_0::SimdFloatAlu              0      0.00%     66.04% # Type of FU issued
system.cpu1.iq.FU_type_0::SimdFloatCmp              0      0.00%     66.04% # Type of FU issued
system.cpu1.iq.FU_type_0::SimdFloatCvt              0      0.00%     66.04% # Type of FU issued
system.cpu1.iq.FU_type_0::SimdFloatDiv              0      0.00%     66.04% # Type of FU issued
system.cpu1.iq.FU_type_0::SimdFloatMisc             0      0.00%     66.04% # Type of FU issued
system.cpu1.iq.FU_type_0::SimdFloatMult             0      0.00%     66.04% # Type of FU issued
system.cpu1.iq.FU_type_0::SimdFloatMultAcc            0      0.00%     66.04% # Type of FU issued
system.cpu1.iq.FU_type_0::SimdFloatSqrt             0      0.00%     66.04% # Type of FU issued
system.cpu1.iq.FU_type_0::SimdReduceAdd             0      0.00%     66.04% # Type of FU issued
system.cpu1.iq.FU_type_0::SimdReduceAlu             0      0.00%     66.04% # Type of FU issued
system.cpu1.iq.FU_type_0::SimdReduceCmp             0      0.00%     66.04% # Type of FU issued
system.cpu1.iq.FU_type_0::SimdFloatReduceAdd            0      0.00%     66.04% # Type of FU issued
system.cpu1.iq.FU_type_0::SimdFloatReduceCmp            0      0.00%     66.04% # Type of FU issued
system.cpu1.iq.FU_type_0::SimdAes                   0      0.00%     66.04% # Type of FU issued
system.cpu1.iq.FU_type_0::SimdAesMix                0      0.00%     66.04% # Type of FU issued
system.cpu1.iq.FU_type_0::SimdSha1Hash              0      0.00%     66.04% # Type of FU issued
system.cpu1.iq.FU_type_0::SimdSha1Hash2             0      0.00%     66.04% # Type of FU issued
system.cpu1.iq.FU_type_0::SimdSha256Hash            0      0.00%     66.04% # Type of FU issued
system.cpu1.iq.FU_type_0::SimdSha256Hash2            0      0.00%     66.04% # Type of FU issued
system.cpu1.iq.FU_type_0::SimdShaSigma2             0      0.00%     66.04% # Type of FU issued
system.cpu1.iq.FU_type_0::SimdShaSigma3             0      0.00%     66.04% # Type of FU issued
system.cpu1.iq.FU_type_0::SimdPredAlu               0      0.00%     66.04% # Type of FU issued
system.cpu1.iq.FU_type_0::MemRead            36459441     26.92%     92.97% # Type of FU issued
system.cpu1.iq.FU_type_0::MemWrite            9523873      7.03%    100.00% # Type of FU issued
system.cpu1.iq.FU_type_0::FloatMemRead              0      0.00%    100.00% # Type of FU issued
system.cpu1.iq.FU_type_0::FloatMemWrite            12      0.00%    100.00% # Type of FU issued
system.cpu1.iq.FU_type_0::IprAccess                 0      0.00%    100.00% # Type of FU issued
system.cpu1.iq.FU_type_0::InstPrefetch              0      0.00%    100.00% # Type of FU issued
system.cpu1.iq.FU_type_0::total             135422834                       # Type of FU issued
system.cpu1.iq.fp_alu_accesses                     15                       # Number of floating point alu accesses
system.cpu1.iq.fp_inst_queue_reads                 27                       # Number of floating instruction queue reads
system.cpu1.iq.fp_inst_queue_wakeup_accesses           12                       # Number of floating instruction queue wakeup accesses
system.cpu1.iq.fp_inst_queue_writes                12                       # Number of floating instruction queue writes
system.cpu1.iq.fu_busy_cnt                    2866777                       # FU busy when requested
system.cpu1.iq.fu_busy_rate                  0.021169                       # FU busy rate (busy events/executed inst)
system.cpu1.iq.fu_full::No_OpClass                  0      0.00%      0.00% # attempts to use FU when none available
system.cpu1.iq.fu_full::IntAlu                 596763     20.82%     20.82% # attempts to use FU when none available
system.cpu1.iq.fu_full::IntMult                     0      0.00%     20.82% # attempts to use FU when none available
system.cpu1.iq.fu_full::IntDiv                      0      0.00%     20.82% # attempts to use FU when none available
system.cpu1.iq.fu_full::FloatAdd                    0      0.00%     20.82% # attempts to use FU when none available
system.cpu1.iq.fu_full::FloatCmp                    0      0.00%     20.82% # attempts to use FU when none available
system.cpu1.iq.fu_full::FloatCvt                    0      0.00%     20.82% # attempts to use FU when none available
system.cpu1.iq.fu_full::FloatMult                   0      0.00%     20.82% # attempts to use FU when none available
system.cpu1.iq.fu_full::FloatMultAcc                0      0.00%     20.82% # attempts to use FU when none available
system.cpu1.iq.fu_full::FloatDiv                    0      0.00%     20.82% # attempts to use FU when none available
system.cpu1.iq.fu_full::FloatMisc                   0      0.00%     20.82% # attempts to use FU when none available
system.cpu1.iq.fu_full::FloatSqrt                   0      0.00%     20.82% # attempts to use FU when none available
system.cpu1.iq.fu_full::SimdAdd                     0      0.00%     20.82% # attempts to use FU when none available
system.cpu1.iq.fu_full::SimdAddAcc                  0      0.00%     20.82% # attempts to use FU when none available
system.cpu1.iq.fu_full::SimdAlu                     0      0.00%     20.82% # attempts to use FU when none available
system.cpu1.iq.fu_full::SimdCmp                     0      0.00%     20.82% # attempts to use FU when none available
system.cpu1.iq.fu_full::SimdCvt                     0      0.00%     20.82% # attempts to use FU when none available
system.cpu1.iq.fu_full::SimdMisc                    0      0.00%     20.82% # attempts to use FU when none available
system.cpu1.iq.fu_full::SimdMult                    0      0.00%     20.82% # attempts to use FU when none available
system.cpu1.iq.fu_full::SimdMultAcc                 0      0.00%     20.82% # attempts to use FU when none available
system.cpu1.iq.fu_full::SimdShift                   0      0.00%     20.82% # attempts to use FU when none available
system.cpu1.iq.fu_full::SimdShiftAcc                0      0.00%     20.82% # attempts to use FU when none available
system.cpu1.iq.fu_full::SimdDiv                     0      0.00%     20.82% # attempts to use FU when none available
system.cpu1.iq.fu_full::SimdSqrt                    0      0.00%     20.82% # attempts to use FU when none available
system.cpu1.iq.fu_full::SimdFloatAdd                0      0.00%     20.82% # attempts to use FU when none available
system.cpu1.iq.fu_full::SimdFloatAlu                0      0.00%     20.82% # attempts to use FU when none available
system.cpu1.iq.fu_full::SimdFloatCmp                0      0.00%     20.82% # attempts to use FU when none available
system.cpu1.iq.fu_full::SimdFloatCvt                0      0.00%     20.82% # attempts to use FU when none available
system.cpu1.iq.fu_full::SimdFloatDiv                0      0.00%     20.82% # attempts to use FU when none available
system.cpu1.iq.fu_full::SimdFloatMisc               0      0.00%     20.82% # attempts to use FU when none available
system.cpu1.iq.fu_full::SimdFloatMult               0      0.00%     20.82% # attempts to use FU when none available
system.cpu1.iq.fu_full::SimdFloatMultAcc            0      0.00%     20.82% # attempts to use FU when none available
system.cpu1.iq.fu_full::SimdFloatSqrt               0      0.00%     20.82% # attempts to use FU when none available
system.cpu1.iq.fu_full::SimdReduceAdd               0      0.00%     20.82% # attempts to use FU when none available
system.cpu1.iq.fu_full::SimdReduceAlu               0      0.00%     20.82% # attempts to use FU when none available
system.cpu1.iq.fu_full::SimdReduceCmp               0      0.00%     20.82% # attempts to use FU when none available
system.cpu1.iq.fu_full::SimdFloatReduceAdd            0      0.00%     20.82% # attempts to use FU when none available
system.cpu1.iq.fu_full::SimdFloatReduceCmp            0      0.00%     20.82% # attempts to use FU when none available
system.cpu1.iq.fu_full::SimdAes                     0      0.00%     20.82% # attempts to use FU when none available
system.cpu1.iq.fu_full::SimdAesMix                  0      0.00%     20.82% # attempts to use FU when none available
system.cpu1.iq.fu_full::SimdSha1Hash                0      0.00%     20.82% # attempts to use FU when none available
system.cpu1.iq.fu_full::SimdSha1Hash2               0      0.00%     20.82% # attempts to use FU when none available
system.cpu1.iq.fu_full::SimdSha256Hash              0      0.00%     20.82% # attempts to use FU when none available
system.cpu1.iq.fu_full::SimdSha256Hash2             0      0.00%     20.82% # attempts to use FU when none available
system.cpu1.iq.fu_full::SimdShaSigma2               0      0.00%     20.82% # attempts to use FU when none available
system.cpu1.iq.fu_full::SimdShaSigma3               0      0.00%     20.82% # attempts to use FU when none available
system.cpu1.iq.fu_full::SimdPredAlu                 0      0.00%     20.82% # attempts to use FU when none available
system.cpu1.iq.fu_full::MemRead               1835565     64.03%     84.85% # attempts to use FU when none available
system.cpu1.iq.fu_full::MemWrite               434446     15.15%    100.00% # attempts to use FU when none available
[...]
system.mem_ctrls.bytesReadSys                   30080                       # Total read bytes from the system interface side
system.mem_ctrls.bytesWrittenSys                 4864                       # Total written bytes from the system interface side
system.mem_ctrls.avgRdBW                      1241.36                       # Average DRAM read bandwidth in MiByte/s
system.mem_ctrls.avgWrBW                       175.77                       # Average achieved write bandwidth in MiByte/s
system.mem_ctrls.avgRdBWSys                   1290.79                       # Average system read bandwidth in MiByte/s
system.mem_ctrls.avgWrBWSys                    208.72                       # Average system write bandwidth in MiByte/s
system.mem_ctrls.peakBW                      12800.00                       # Theoretical peak bandwidth in MiByte/s
system.mem_ctrls.busUtil                        11.07                       # Data bus utilization in percentage
system.mem_ctrls.busUtilRead                     9.70                       # Data bus utilization in percentage for reads
system.mem_ctrls.busUtilWrite                    1.37                       # Data bus utilization in percentage for writes
system.mem_ctrls.totGap                      23375500                       # Total gap between requests
system.mem_ctrls.avgGap                      42812.27                       # Average gap between requests
system.mem_ctrls.masterReadBytes::.cpu0.inst        16832                       # Per-master bytes read from memory
system.mem_ctrls.masterReadBytes::.cpu0.data        11008                       # Per-master bytes read from memory
system.mem_ctrls.masterReadBytes::.l2.prefetcher         1088                       # Per-master bytes read from memory
system.mem_ctrls.masterWriteBytes::.writebacks         4096                       # Per-master bytes write to memory
system.mem_ctrls.masterReadRate::.cpu0.inst 722294934.237346291542                       # Per-master bytes read from memory rate (Bytes/sec)
system.mem_ctrls.masterReadRate::.cpu0.data 472375394.254081964493                       # Per-master bytes read from memory rate (Bytes/sec)
system.mem_ctrls.masterReadRate::.l2.prefetcher 46688265.711159266531                       # Per-master bytes read from memory rate (Bytes/sec)
system.mem_ctrls.masterWriteRate::.writebacks 175767588.559658408165                       # Per-master bytes write to memory rate (Bytes/sec)
system.mem_ctrls.masterReadAccesses::.cpu0.inst          263                       # Per-master read serviced memory accesses
system.mem_ctrls.masterReadAccesses::.cpu0.data          190                       # Per-master read serviced memory accesses
system.mem_ctrls.masterReadAccesses::.l2.prefetcher           17                       # Per-master read serviced memory accesses
system.mem_ctrls.masterWriteAccesses::.writebacks           76                       # Per-master write serviced memory accesses
system.mem_ctrls.masterReadTotalLat::.cpu0.inst      7942500                       # Per-master read total memory access latency
system.mem_ctrls.masterReadTotalLat::.cpu0.data      5986001                       # Per-master read total memory access latency
system.mem_ctrls.masterReadTotalLat::.l2.prefetcher       396752                       # Per-master read total memory access latency
system.mem_ctrls.masterWriteTotalLat::.writebacks    543938750                       # Per-master write total memory access latency
system.mem_ctrls.masterReadAvgLat::.cpu0.inst     30199.62                       # Per-master read average memory access latency
system.mem_ctrls.masterReadAvgLat::.cpu0.data     31505.27                       # Per-master read average memory access latency
system.mem_ctrls.masterReadAvgLat::.l2.prefetcher     23338.35                       # Per-master read average memory access latency
system.mem_ctrls.masterWriteAvgLat::.writebacks   7157088.82                       # Per-master write average memory access latency
system.mem_ctrls.pageHitRate                    71.65                       # Row buffer hit rate, read and write combined
system.mem_ctrls.rank1.actEnergy               342720                       # Energy for activate commands per rank (pJ)
system.mem_ctrls.rank1.preEnergy               189750                       # Energy for precharge commands per rank (pJ)
system.mem_ctrls.rank1.readEnergy             1299480                       # Energy for read commands per rank (pJ)
system.mem_ctrls.rank1.writeEnergy              67860                       # Energy for write commands per rank (pJ)
system.mem_ctrls.rank1.refreshEnergy     1843920.000000                       # Energy for refresh commands per rank (pJ)
system.mem_ctrls.rank1.actBackEnergy         10560960                       # Energy for active background per rank (pJ)
system.mem_ctrls.rank1.preBackEnergy            55200                       # Energy for precharge background per rank (pJ)
system.mem_ctrls.rank1.actPowerDownEnergy            0                       # Energy for active power-down per rank (pJ)
system.mem_ctrls.rank1.prePowerDownEnergy            0                       # Energy for precharge power-down per rank (pJ)
system.mem_ctrls.rank1.selfRefreshEnergy            0                       # Energy for self refresh per rank (pJ)
system.mem_ctrls.rank1.totalEnergy           14359890                       # Total energy per rank (pJ)
system.mem_ctrls.rank1.averagePower        616.211728                       # Core power per rank (mW)
system.mem_ctrls.rank1.totalIdleTime                0                       # Total Idle time Per DRAM Rank
system.mem_ctrls.rank1.memoryStateTime::IDLE        60750                       # Time in different power states
system.mem_ctrls.rank1.memoryStateTime::REF       780000                       # Time in different power states
system.mem_ctrls.rank1.memoryStateTime::SREF            0                       # Time in different power states
system.mem_ctrls.rank1.memoryStateTime::PRE_PDN            0                       # Time in different power states
system.mem_ctrls.rank1.memoryStateTime::ACT     22462750                       # Time in different power states
system.mem_ctrls.rank1.memoryStateTime::ACT_PDN            0                       # Time in different power states
system.mem_ctrls.rank0.actEnergy               664020                       # Energy for activate commands per rank (pJ)
system.mem_ctrls.rank0.preEnergy               356730                       # Energy for precharge commands per rank (pJ)
system.mem_ctrls.rank0.readEnergy             1920660                       # Energy for read commands per rank (pJ)
system.mem_ctrls.rank0.writeEnergy             266220                       # Energy for write commands per rank (pJ)
system.mem_ctrls.rank0.refreshEnergy     1843920.000000                       # Energy for refresh commands per rank (pJ)
system.mem_ctrls.rank0.actBackEnergy         10489140                       # Energy for active background per rank (pJ)
system.mem_ctrls.rank0.preBackEnergy           115680                       # Energy for precharge background per rank (pJ)
system.mem_ctrls.rank0.actPowerDownEnergy            0                       # Energy for active power-down per rank (pJ)
system.mem_ctrls.rank0.prePowerDownEnergy            0                       # Energy for precharge power-down per rank (pJ)
system.mem_ctrls.rank0.selfRefreshEnergy            0                       # Energy for self refresh per rank (pJ)
system.mem_ctrls.rank0.totalEnergy           15656370                       # Total energy per rank (pJ)
system.mem_ctrls.rank0.averagePower        671.846289                       # Core power per rank (mW)
system.mem_ctrls.rank0.totalIdleTime                0                       # Total Idle time Per DRAM Rank
system.mem_ctrls.rank0.memoryStateTime::IDLE       149000                       # Time in different power states
system.mem_ctrls.rank0.memoryStateTime::REF       780000                       # Time in different power states
system.mem_ctrls.rank0.memoryStateTime::SREF            0                       # Time in different power states
system.mem_ctrls.rank0.memoryStateTime::PRE_PDN            0                       # Time in different power states
system.mem_ctrls.rank0.memoryStateTime::ACT     22374500                       # Time in different power states
system.mem_ctrls.rank0.memoryStateTime::ACT_PDN            0                       # Time in different power states
system.cpu1.pwrStateClkGateDist::samples            1                       # Distribution of time spent in the clock gated state
system.cpu1.pwrStateClkGateDist::mean        23303500                       # Distribution of time spent in the clock gated state
system.cpu1.pwrStateClkGateDist::1000-5e+10            1    100.00%    100.00% # Distribution of time spent in the clock gated state
system.cpu1.pwrStateClkGateDist::min_value     23303500                       # Distribution of time spent in the clock gated state
system.cpu1.pwrStateClkGateDist::max_value     23303500                       # Distribution of time spent in the clock gated state
system.cpu1.pwrStateClkGateDist::total              1                       # Distribution of time spent in the clock gated state
system.cpu1.pwrStateResidencyTicks::CLK_GATED     23303500                       # Cumulative time (in ticks) in various power states
system.cpu1.icache.pwrStateResidencyTicks::UNDEFINED     23303500                       # Cumulative time (in ticks) in various power states
system.cpu1.icache.blocked_cycles::no_mshrs            0                       # number of cycles access was blocked
system.cpu1.icache.blocked_cycles::no_targets            0                       # number of cycles access was blocked
system.cpu1.icache.blocked::no_mshrs                0                       # number of cycles access was blocked
system.cpu1.icache.blocked::no_targets              0                       # number of cycles access was blocked
system.cpu1.icache.avg_blocked_cycles::no_mshrs          nan                       # average number of cycles each access was blocked
system.cpu1.icache.avg_blocked_cycles::no_targets          nan                       # average number of cycles each access was blocked
system.cpu1.icache.replacements                     0                       # number of replacements
system.cpu1.icache.tags.pwrStateResidencyTicks::UNDEFINED     23303500                       # Cumulative time (in ticks) in various power states
system.cpu1.icache.tags.tagsinuse                  32                       # Cycle average of tags in use
system.cpu1.icache.tags.total_refs             525372                       # Total number of references to valid blocks.
system.cpu1.icache.tags.sampled_refs               32                       # Sample count of references to valid blocks.
system.cpu1.icache.tags.avg_refs         16417.875000                       # Average number of references to valid blocks.
system.cpu1.icache.tags.warmup_cycle                0                       # Cycle when the warmup percentage was hit.
system.cpu1.icache.tags.occ_blocks::.cpu1.inst           32                       # Average occupied blocks per requestor
system.cpu1.icache.tags.occ_percent::.cpu1.inst            1                       # Average percentage of cache occupancy
system.cpu1.icache.tags.occ_percent::total            1                       # Average percentage of cache occupancy
system.cpu1.icache.tags.occ_task_id_blocks::1024           32                       # Occupied blocks per task id
system.cpu1.icache.tags.age_task_id_blocks_1024::1           20                       # Occupied blocks per task id
system.cpu1.icache.tags.age_task_id_blocks_1024::3            1                       # Occupied blocks per task id
system.cpu1.icache.tags.age_task_id_blocks_1024::4           11                       # Occupied blocks per task id
system.cpu1.icache.tags.occ_task_id_percent::1024            1                       # Percentage of cache occupancy per task id
system.cpu1.icache.tags.tag_accesses                0                       # Number of tag accesses
system.cpu1.icache.tags.data_accesses               0                       # Number of data accesses
system.cpu1.dcache.pwrStateResidencyTicks::UNDEFINED     23303500                       # Cumulative time (in ticks) in various power states
system.cpu1.dcache.blocked_cycles::no_mshrs            0                       # number of cycles access was blocked
system.cpu1.dcache.blocked_cycles::no_targets            0                       # number of cycles access was blocked
system.cpu1.dcache.blocked::no_mshrs                0                       # number of cycles access was blocked
system.cpu1.dcache.blocked::no_targets              0                       # number of cycles access was blocked
system.cpu1.dcache.avg_blocked_cycles::no_mshrs          nan                       # average number of cycles each access was blocked
system.cpu1.dcache.avg_blocked_cycles::no_targets          nan                       # average number of cycles each access was blocked
system.cpu1.dcache.replacements                     0                       # number of replacements
system.cpu1.dcache.tags.pwrStateResidencyTicks::UNDEFINED     23303500                       # Cumulative time (in ticks) in various power states
system.cpu1.dcache.tags.tagsinuse           27.586435                       # Cycle average of tags in use
system.cpu1.dcache.tags.total_refs               2761                       # Total number of references to valid blocks.
system.cpu1.dcache.tags.sampled_refs               31                       # Sample count of references to valid blocks.
system.cpu1.dcache.tags.avg_refs            89.064516                       # Average number of references to valid blocks.
system.cpu1.dcache.tags.warmup_cycle                0                       # Cycle when the warmup percentage was hit.
system.cpu1.dcache.tags.occ_blocks::.cpu1.data    27.586435                       # Average occupied blocks per requestor
system.cpu1.dcache.tags.occ_percent::.cpu1.data     0.862076                       # Average percentage of cache occupancy
system.cpu1.dcache.tags.occ_percent::total     0.862076                       # Average percentage of cache occupancy
system.cpu1.dcache.tags.occ_task_id_blocks::1024           27                       # Occupied blocks per task id
system.cpu1.dcache.tags.age_task_id_blocks_1024::1           27                       # Occupied blocks per task id
system.cpu1.dcache.tags.occ_task_id_percent::1024     0.843750                       # Percentage of cache occupancy per task id
system.cpu1.dcache.tags.tag_accesses                0                       # Number of tag accesses
system.cpu1.dcache.tags.data_accesses               0                       # Number of data accesses
system.cpu_clk_domain.clock                       500                       # Clock period in ticks
system.tol2bus.pwrStateResidencyTicks::UNDEFINED     23303500                       # Cumulative time (in ticks) in various power states
system.tol2bus.trans_dist::ReadResp               587                       # Transaction distribution
system.tol2bus.trans_dist::WritebackDirty          192                       # Transaction distribution
system.tol2bus.trans_dist::WritebackClean          499                       # Transaction distribution
system.tol2bus.trans_dist::CleanEvict             823                       # Transaction distribution
system.tol2bus.trans_dist::HardPFReq               31                       # Transaction distribution
system.tol2bus.trans_dist::UpgradeReq               3                       # Transaction distribution
system.tol2bus.trans_dist::UpgradeResp              3                       # Transaction distribution
system.tol2bus.trans_dist::ReadExReq               28                       # Transaction distribution
system.tol2bus.trans_dist::ReadExResp              28                       # Transaction distribution
system.tol2bus.trans_dist::ReadCleanReq           353                       # Transaction distribution
system.tol2bus.trans_dist::ReadSharedReq          236                       # Transaction distribution
system.tol2bus.pkt_count_system.cpu0.icache.mem_side::system.l2.cpu_side         1055                       # Packet count per connected master and slave (bytes)
system.tol2bus.pkt_count_system.cpu0.dcache.mem_side::system.l2.cpu_side          796                       # Packet count per connected master and slave (bytes)
system.tol2bus.pkt_count::total                  1851                       # Packet count per connected master and slave (bytes)
system.tol2bus.pkt_size_system.cpu0.icache.mem_side::system.l2.cpu_side        44928                       # Cumulative packet size per connected master and slave (bytes)
system.tol2bus.pkt_size_system.cpu0.dcache.mem_side::system.l2.cpu_side        33728                       # Cumulative packet size per connected master and slave (bytes)
system.tol2bus.pkt_size::total                  78656                       # Cumulative packet size per connected master and slave (bytes)
system.tol2bus.snoops                             932                       # Total snoops (count)
system.tol2bus.snoopTraffic                      4928                       # Total snoop traffic (bytes)
system.tol2bus.snoop_fanout::samples             1550                       # Request fanout histogram
system.tol2bus.snoop_fanout::mean            0.325806                       # Request fanout histogram
system.tol2bus.snoop_fanout::stdev           0.490364                       # Request fanout histogram
system.tol2bus.snoop_fanout::underflows             0      0.00%      0.00% # Request fanout histogram
system.tol2bus.snoop_fanout::0                   1061     68.45%     68.45% # Request fanout histogram
system.tol2bus.snoop_fanout::1                    473     30.52%     98.97% # Request fanout histogram
system.tol2bus.snoop_fanout::2                     16      1.03%    100.00% # Request fanout histogram
system.tol2bus.snoop_fanout::3                      0      0.00%    100.00% # Request fanout histogram
system.tol2bus.snoop_fanout::4                      0      0.00%    100.00% # Request fanout histogram
system.tol2bus.snoop_fanout::5                      0      0.00%    100.00% # Request fanout histogram
system.tol2bus.snoop_fanout::6                      0      0.00%    100.00% # Request fanout histogram
system.tol2bus.snoop_fanout::7                      0      0.00%    100.00% # Request fanout histogram
system.tol2bus.snoop_fanout::8                      0      0.00%    100.00% # Request fanout histogram
system.tol2bus.snoop_fanout::overflows              0      0.00%    100.00% # Request fanout histogram
system.tol2bus.snoop_fanout::min_value              0                       # Request fanout histogram
system.tol2bus.snoop_fanout::max_value              2                       # Request fanout histogram
system.tol2bus.snoop_fanout::total               1550                       # Request fanout histogram
system.tol2bus.reqLayer0.occupancy            1232500                       # Layer occupancy (ticks)
system.tol2bus.reqLayer0.utilization              5.3                       # Layer utilization (%)
system.tol2bus.respLayer1.occupancy            397999                       # Layer occupancy (ticks)
system.tol2bus.respLayer1.utilization             1.7                       # Layer utilization (%)
system.tol2bus.respLayer0.occupancy            526500                       # Layer occupancy (ticks)
system.tol2bus.respLayer0.utilization             2.3                       # Layer utilization (%)

---------- End Simulation Statistics   ----------
