
---------- Begin Simulation Statistics ----------
final_tick                               1270387105000                       # Number of ticks from beginning of simulation (restored from checkpoints and never reset)
host_inst_rate                                  64381                       # Simulator instruction rate (inst/s)
host_mem_usage                                 702468                       # Number of bytes of host memory used
host_op_rate                                    64570                       # Simulator op (including micro ops) rate (op/s)
host_seconds                                 22314.48                       # Real time elapsed on the host
host_tick_rate                               56931077                       # Simulator tick rate (ticks/s)
sim_freq                                 1000000000000                       # Frequency of simulated ticks
sim_insts                                  1436631313                       # Number of instructions simulated
sim_ops                                    1440835082                       # Number of ops (including micro ops) simulated
sim_seconds                                  1.270387                       # Number of seconds simulated
sim_ticks                                1270387105000                       # Number of ticks simulated
system.cpu0.branchPred.BTBCorrect                   0                       # Number of correct BTB predictions (this stat may not work properly.
system.cpu0.branchPred.BTBHitPct            87.330641                       # BTB Hit Percentage
system.cpu0.branchPred.BTBHits              177369671                       # Number of BTB hits
system.cpu0.branchPred.BTBLookups           203101304                       # Number of BTB lookups
system.cpu0.branchPred.RASInCorrect                 0                       # Number of incorrect RAS predictions.
system.cpu0.branchPred.condIncorrect         13449181                       # Number of conditional branches incorrect
system.cpu0.branchPred.condPredicted        272959246                       # Number of conditional branches predicted
system.cpu0.branchPred.indirectHits          21636723                       # Number of indirect target hits.
system.cpu0.branchPred.indirectLookups       23126974                       # Number of indirect predictor lookups.
system.cpu0.branchPred.indirectMisses         1490251                       # Number of indirect misses.
system.cpu0.branchPred.lookups              345680776                       # Number of BP lookups
system.cpu0.branchPred.usedRAS                      0                       # Number of times the RAS was used to get a target.
system.cpu0.branchPredindirectMispredicted      2188173                       # Number of mispredicted indirect branches.
system.cpu0.commit.amos                       2100295                       # Number of atomic instructions committed
system.cpu0.commit.branchMispredicts          8778009                       # The number of times a branch was mispredicted
system.cpu0.commit.branches                 329546740                       # Number of branches committed
system.cpu0.commit.bw_lim_events             35090245                       # number cycles where commit BW limit reached
system.cpu0.commit.commitNonSpecStalls        6309807                       # The number of times commit has been forced to stall to communicate backwards
system.cpu0.commit.commitSquashedInsts       65184207                       # The number of squashed insts skipped by commit
system.cpu0.commit.committedInsts          1316554925                       # Number of instructions committed
system.cpu0.commit.committedOps            1318658517                       # Number of ops (including micro ops) committed
system.cpu0.commit.committed_per_cycle::samples   2361297197                       # Number of insts commited each cycle
system.cpu0.commit.committed_per_cycle::mean     0.558447                       # Number of insts commited each cycle
system.cpu0.commit.committed_per_cycle::stdev     1.303965                       # Number of insts commited each cycle
system.cpu0.commit.committed_per_cycle::underflows            0      0.00%      0.00% # Number of insts commited each cycle
system.cpu0.commit.committed_per_cycle::0   1704224467     72.17%     72.17% # Number of insts commited each cycle
system.cpu0.commit.committed_per_cycle::1    407050068     17.24%     89.41% # Number of insts commited each cycle
system.cpu0.commit.committed_per_cycle::2     85027979      3.60%     93.01% # Number of insts commited each cycle
system.cpu0.commit.committed_per_cycle::3     88057616      3.73%     96.74% # Number of insts commited each cycle
system.cpu0.commit.committed_per_cycle::4     24860904      1.05%     97.79% # Number of insts commited each cycle
system.cpu0.commit.committed_per_cycle::5      8884111      0.38%     98.17% # Number of insts commited each cycle
system.cpu0.commit.committed_per_cycle::6      3919137      0.17%     98.34% # Number of insts commited each cycle
system.cpu0.commit.committed_per_cycle::7      4182670      0.18%     98.51% # Number of insts commited each cycle
system.cpu0.commit.committed_per_cycle::8     35090245      1.49%    100.00% # Number of insts commited each cycle
system.cpu0.commit.committed_per_cycle::overflows            0      0.00%    100.00% # Number of insts commited each cycle
system.cpu0.commit.committed_per_cycle::min_value            0                       # Number of insts commited each cycle
system.cpu0.commit.committed_per_cycle::max_value            8                       # Number of insts commited each cycle
system.cpu0.commit.committed_per_cycle::total   2361297197                       # Number of insts commited each cycle
system.cpu0.commit.fp_insts                        46                       # Number of committed floating point instructions.
system.cpu0.commit.function_calls            25143586                       # Number of function calls committed.
system.cpu0.commit.int_insts               1273926565                       # Number of committed integer instructions.
system.cpu0.commit.loads                    405171898                       # Number of loads committed
system.cpu0.commit.membars                    4203752                       # Number of memory barriers committed
system.cpu0.commit.op_class_0::No_OpClass      4203758      0.32%      0.32% # Class of committed instruction
system.cpu0.commit.op_class_0::IntAlu       742066129     56.27%     56.59% # Class of committed instruction
system.cpu0.commit.op_class_0::IntMult       11831786      0.90%     57.49% # Class of committed instruction
system.cpu0.commit.op_class_0::IntDiv         2099835      0.16%     57.65% # Class of committed instruction
system.cpu0.commit.op_class_0::FloatAdd             0      0.00%     57.65% # Class of committed instruction
system.cpu0.commit.op_class_0::FloatCmp             4      0.00%     57.65% # Class of committed instruction
system.cpu0.commit.op_class_0::FloatCvt            12      0.00%     57.65% # Class of committed instruction
system.cpu0.commit.op_class_0::FloatMult            0      0.00%     57.65% # Class of committed instruction
system.cpu0.commit.op_class_0::FloatMultAcc            0      0.00%     57.65% # Class of committed instruction
system.cpu0.commit.op_class_0::FloatDiv             2      0.00%     57.65% # Class of committed instruction
system.cpu0.commit.op_class_0::FloatMisc            4      0.00%     57.65% # Class of committed instruction
system.cpu0.commit.op_class_0::FloatSqrt            0      0.00%     57.65% # Class of committed instruction
system.cpu0.commit.op_class_0::SimdAdd              0      0.00%     57.65% # Class of committed instruction
system.cpu0.commit.op_class_0::SimdAddAcc            0      0.00%     57.65% # Class of committed instruction
system.cpu0.commit.op_class_0::SimdAlu              0      0.00%     57.65% # Class of committed instruction
system.cpu0.commit.op_class_0::SimdCmp              0      0.00%     57.65% # Class of committed instruction
system.cpu0.commit.op_class_0::SimdCvt              0      0.00%     57.65% # Class of committed instruction
system.cpu0.commit.op_class_0::SimdMisc             0      0.00%     57.65% # Class of committed instruction
system.cpu0.commit.op_class_0::SimdMult             0      0.00%     57.65% # Class of committed instruction
system.cpu0.commit.op_class_0::SimdMultAcc            0      0.00%     57.65% # Class of committed instruction
system.cpu0.commit.op_class_0::SimdShift            0      0.00%     57.65% # Class of committed instruction
system.cpu0.commit.op_class_0::SimdShiftAcc            0      0.00%     57.65% # Class of committed instruction
system.cpu0.commit.op_class_0::SimdDiv              0      0.00%     57.65% # Class of committed instruction
system.cpu0.commit.op_class_0::SimdSqrt             0      0.00%     57.65% # Class of committed instruction
system.cpu0.commit.op_class_0::SimdFloatAdd            0      0.00%     57.65% # Class of committed instruction
system.cpu0.commit.op_class_0::SimdFloatAlu            0      0.00%     57.65% # Class of committed instruction
system.cpu0.commit.op_class_0::SimdFloatCmp            0      0.00%     57.65% # Class of committed instruction
system.cpu0.commit.op_class_0::SimdFloatCvt            0      0.00%     57.65% # Class of committed instruction
system.cpu0.commit.op_class_0::SimdFloatDiv            0      0.00%     57.65% # Class of committed instruction
system.cpu0.commit.op_class_0::SimdFloatMisc            0      0.00%     57.65% # Class of committed instruction
system.cpu0.commit.op_class_0::SimdFloatMult            0      0.00%     57.65% # Class of committed instruction
system.cpu0.commit.op_class_0::SimdFloatMultAcc            0      0.00%     57.65% # Class of committed instruction
system.cpu0.commit.op_class_0::SimdFloatSqrt            0      0.00%     57.65% # Class of committed instruction
system.cpu0.commit.op_class_0::SimdReduceAdd            0      0.00%     57.65% # Class of committed instruction
system.cpu0.commit.op_class_0::SimdReduceAlu            0      0.00%     57.65% # Class of committed instruction
system.cpu0.commit.op_class_0::SimdReduceCmp            0      0.00%     57.65% # Class of committed instruction
system.cpu0.commit.op_class_0::SimdFloatReduceAdd            0      0.00%     57.65% # Class of committed instruction
system.cpu0.commit.op_class_0::SimdFloatReduceCmp            0      0.00%     57.65% # Class of committed instruction
system.cpu0.commit.op_class_0::SimdAes              0      0.00%     57.65% # Class of committed instruction
system.cpu0.commit.op_class_0::SimdAesMix            0      0.00%     57.65% # Class of committed instruction
system.cpu0.commit.op_class_0::SimdSha1Hash            0      0.00%     57.65% # Class of committed instruction
system.cpu0.commit.op_class_0::SimdSha1Hash2            0      0.00%     57.65% # Class of committed instruction
system.cpu0.commit.op_class_0::SimdSha256Hash            0      0.00%     57.65% # Class of committed instruction
system.cpu0.commit.op_class_0::SimdSha256Hash2            0      0.00%     57.65% # Class of committed instruction
system.cpu0.commit.op_class_0::SimdShaSigma2            0      0.00%     57.65% # Class of committed instruction
system.cpu0.commit.op_class_0::SimdShaSigma3            0      0.00%     57.65% # Class of committed instruction
system.cpu0.commit.op_class_0::SimdPredAlu            0      0.00%     57.65% # Class of committed instruction
system.cpu0.commit.op_class_0::MemRead      407272185     30.89%     88.53% # Class of committed instruction
system.cpu0.commit.op_class_0::MemWrite     151184778     11.47%    100.00% # Class of committed instruction
system.cpu0.commit.op_class_0::FloatMemRead            8      0.00%    100.00% # Class of committed instruction
system.cpu0.commit.op_class_0::FloatMemWrite           16      0.00%    100.00% # Class of committed instruction
system.cpu0.commit.op_class_0::IprAccess            0      0.00%    100.00% # Class of committed instruction
system.cpu0.commit.op_class_0::InstPrefetch            0      0.00%    100.00% # Class of committed instruction
system.cpu0.commit.op_class_0::total       1318658517                       # Class of committed instruction
system.cpu0.commit.refs                     558456987                       # Number of memory references committed
system.cpu0.commit.swp_count                        0                       # Number of s/w prefetches committed
system.cpu0.commit.vec_insts                        0                       # Number of committed Vector instructions.
system.cpu0.committedInsts                 1316554925                       # Number of Instructions Simulated
system.cpu0.committedOps                   1318658517                       # Number of Ops (including micro ops) Simulated
system.cpu0.cpi                              1.924672                       # CPI: Cycles Per Instruction
system.cpu0.cpi_total                        1.924672                       # CPI: Total CPI of All Threads
system.cpu0.decode.BlockedCycles            439639629                       # Number of cycles decode is blocked
system.cpu0.decode.BranchMispred              4723615                       # Number of times decode detected a branch misprediction
system.cpu0.decode.BranchResolved           176502022                       # Number of times decode resolved a branch
system.cpu0.decode.DecodedInsts            1405641937                       # Number of instructions handled by decode
system.cpu0.decode.IdleCycles               944643390                       # Number of cycles decode is idle
system.cpu0.decode.RunCycles                975931750                       # Number of cycles decode is running
system.cpu0.decode.SquashCycles               8789714                       # Number of cycles decode is squashing
system.cpu0.decode.SquashedInsts              8169060                       # Number of squashed instructions handled by decode
system.cpu0.decode.UnblockCycles              6048231                       # Number of cycles decode is unblocking
system.cpu0.dtb.accesses                            0                       # DTB accesses
system.cpu0.dtb.hits                                0                       # DTB hits
system.cpu0.dtb.misses                              0                       # DTB misses
system.cpu0.dtb.read_accesses                       0                       # DTB read accesses
system.cpu0.dtb.read_hits                           0                       # DTB read hits
system.cpu0.dtb.read_misses                         0                       # DTB read misses
system.cpu0.dtb.write_accesses                      0                       # DTB write accesses
system.cpu0.dtb.write_hits                          0                       # DTB write hits
system.cpu0.dtb.write_misses                        0                       # DTB write misses
system.cpu0.fetch.Branches                  345680776                       # Number of branches that fetch encountered
system.cpu0.fetch.CacheLines                248659773                       # Number of cache lines fetched
system.cpu0.fetch.Cycles                   1425305768                       # Number of cycles fetch has run and was not squashing or blocked
system.cpu0.fetch.IcacheSquashes              5000093                       # Number of outstanding Icache misses that were squashed
system.cpu0.fetch.IcacheWaitRetryStallCycles          207                       # Number of stall cycles due to full MSHR
system.cpu0.fetch.Insts                    1422804505                       # Number of instructions fetch has processed
system.cpu0.fetch.MiscStallCycles                 190                       # Number of cycles fetch has spent waiting on interrupts, or bad addresses, or out of MSHRs
system.cpu0.fetch.PendingTrapStallCycles            6                       # Number of stall cycles due to pending traps
system.cpu0.fetch.SquashCycles               26921774                       # Number of cycles fetch has spent squashing
system.cpu0.fetch.branchRate                 0.136420                       # Number of branch fetches per cycle
system.cpu0.fetch.icacheStallCycles         936285656                       # Number of cycles fetch is stalled on an Icache miss
system.cpu0.fetch.predictedBranches         199006394                       # Number of branches that fetch has predicted taken
system.cpu0.fetch.rate                       0.561500                       # Number of inst fetches per cycle
system.cpu0.fetch.rateDist::samples        2375052714                       # Number of instructions fetched each cycle (Total)
system.cpu0.fetch.rateDist::mean             0.599948                       # Number of instructions fetched each cycle (Total)
system.cpu0.fetch.rateDist::stdev            0.875827                       # Number of instructions fetched each cycle (Total)
system.cpu0.fetch.rateDist::underflows              0      0.00%      0.00% # Number of instructions fetched each cycle (Total)
system.cpu0.fetch.rateDist::0              1357083784     57.14%     57.14% # Number of instructions fetched each cycle (Total)
system.cpu0.fetch.rateDist::1               754501333     31.77%     88.91% # Number of instructions fetched each cycle (Total)
system.cpu0.fetch.rateDist::2               156671391      6.60%     95.50% # Number of instructions fetched each cycle (Total)
system.cpu0.fetch.rateDist::3                89893642      3.78%     99.29% # Number of instructions fetched each cycle (Total)
system.cpu0.fetch.rateDist::4                 7753295      0.33%     99.61% # Number of instructions fetched each cycle (Total)
system.cpu0.fetch.rateDist::5                 4835951      0.20%     99.82% # Number of instructions fetched each cycle (Total)
system.cpu0.fetch.rateDist::6                  107105      0.00%     99.82% # Number of instructions fetched each cycle (Total)
system.cpu0.fetch.rateDist::7                 2101659      0.09%     99.91% # Number of instructions fetched each cycle (Total)
system.cpu0.fetch.rateDist::8                 2104554      0.09%    100.00% # Number of instructions fetched each cycle (Total)
system.cpu0.fetch.rateDist::overflows               0      0.00%    100.00% # Number of instructions fetched each cycle (Total)
system.cpu0.fetch.rateDist::min_value               0                       # Number of instructions fetched each cycle (Total)
system.cpu0.fetch.rateDist::max_value               8                       # Number of instructions fetched each cycle (Total)
system.cpu0.fetch.rateDist::total          2375052714                       # Number of instructions fetched each cycle (Total)
system.cpu0.fp_regfile_reads                       40                       # number of floating regfile reads
system.cpu0.fp_regfile_writes                      23                       # number of floating regfile writes
system.cpu0.idleCycles                      158883055                       # Total number of cycles that the CPU has spent unscheduled due to idling
system.cpu0.iew.branchMispredicts             8900992                       # Number of branch mispredicts detected at execute
system.cpu0.iew.exec_branches               336187529                       # Number of branches executed
system.cpu0.iew.exec_nop                            0                       # number of nop insts executed
system.cpu0.iew.exec_rate                    0.540487                       # Inst execution rate
system.cpu0.iew.exec_refs                   586425183                       # number of memory reference insts executed
system.cpu0.iew.exec_stores                 155841505                       # Number of stores executed
system.cpu0.iew.exec_swp                            0                       # number of swp insts executed
system.cpu0.iew.iewBlockCycles              361324702                       # Number of cycles IEW is blocking
system.cpu0.iew.iewDispLoadInsts            430941468                       # Number of dispatched load instructions
system.cpu0.iew.iewDispNonSpecInsts           2106269                       # Number of dispatched non-speculative instructions
system.cpu0.iew.iewDispSquashedInsts          3227178                       # Number of squashed instructions skipped by dispatch
system.cpu0.iew.iewDispStoreInsts           157993622                       # Number of dispatched store instructions
system.cpu0.iew.iewDispatchedInsts         1383773080                       # Number of instructions dispatched to IQ
system.cpu0.iew.iewExecLoadInsts            430583678                       # Number of load instructions executed
system.cpu0.iew.iewExecSquashedInsts          9049491                       # Number of squashed instructions skipped in execute
system.cpu0.iew.iewExecutedInsts           1369558566                       # Number of executed instructions
system.cpu0.iew.iewIQFullEvents               1861886                       # Number of times the IQ has become full, causing a stall
system.cpu0.iew.iewIdleCycles                       0                       # Number of cycles IEW is idle
system.cpu0.iew.iewLSQFullEvents              7762443                       # Number of times the LSQ has become full, causing a stall
system.cpu0.iew.iewSquashCycles               8789714                       # Number of cycles IEW is squashing
system.cpu0.iew.iewUnblockCycles             11935019                       # Number of cycles IEW is unblocking
system.cpu0.iew.lsq.thread0.blockedLoads            0                       # Number of blocked loads due to partial load-store forwarding
system.cpu0.iew.lsq.thread0.cacheBlocked       184958                       # Number of times an access to memory failed due to the cache being blocked
system.cpu0.iew.lsq.thread0.forwLoads        20018954                       # Number of loads that had data forwarded from stores
system.cpu0.iew.lsq.thread0.ignoredResponses        37511                       # Number of memory responses ignored because the instruction is squashed
system.cpu0.iew.lsq.thread0.invAddrLoads            0                       # Number of loads ignored due to an invalid address
system.cpu0.iew.lsq.thread0.invAddrSwpfs            0                       # Number of software prefetches ignored due to an invalid address
system.cpu0.iew.lsq.thread0.memOrderViolation        12135                       # Number of memory ordering violations
system.cpu0.iew.lsq.thread0.rescheduledLoads      4784551                       # Number of loads that were rescheduled
system.cpu0.iew.lsq.thread0.squashedLoads     25769570                       # Number of loads squashed
system.cpu0.iew.lsq.thread0.squashedStores      4708533                       # Number of stores squashed
system.cpu0.iew.memOrderViolationEvents         12135                       # Number of memory order violations
system.cpu0.iew.predictedNotTakenIncorrect       737398                       # Number of branches that were predicted not taken incorrectly
system.cpu0.iew.predictedTakenIncorrect       8163594                       # Number of branches that were predicted taken incorrectly
system.cpu0.iew.wb_consumers                576878504                       # num instructions consuming a value
system.cpu0.iew.wb_count                   1358351347                       # cumulative count of insts written-back
system.cpu0.iew.wb_fanout                    0.899885                       # average fanout of values written-back
system.cpu0.iew.wb_producers                519124560                       # num instructions producing a value
system.cpu0.iew.wb_rate                      0.536064                       # insts written-back per cycle
system.cpu0.iew.wb_sent                    1358431970                       # cumulative count of insts sent to commit
system.cpu0.int_regfile_reads              1680443266                       # number of integer regfile reads
system.cpu0.int_regfile_writes              876045074                       # number of integer regfile writes
system.cpu0.ipc                              0.519569                       # IPC: Instructions Per Cycle
system.cpu0.ipc_total                        0.519569                       # IPC: Total IPC of All Threads
system.cpu0.iq.FU_type_0::No_OpClass          4205642      0.31%      0.31% # Type of FU issued
system.cpu0.iq.FU_type_0::IntAlu            769819886     55.84%     56.15% # Type of FU issued
system.cpu0.iq.FU_type_0::IntMult            11833032      0.86%     57.00% # Type of FU issued
system.cpu0.iq.FU_type_0::IntDiv              2100432      0.15%     57.16% # Type of FU issued
system.cpu0.iq.FU_type_0::FloatAdd                  0      0.00%     57.16% # Type of FU issued
system.cpu0.iq.FU_type_0::FloatCmp                  4      0.00%     57.16% # Type of FU issued
system.cpu0.iq.FU_type_0::FloatCvt                 12      0.00%     57.16% # Type of FU issued
system.cpu0.iq.FU_type_0::FloatMult                 0      0.00%     57.16% # Type of FU issued
system.cpu0.iq.FU_type_0::FloatMultAcc              0      0.00%     57.16% # Type of FU issued
system.cpu0.iq.FU_type_0::FloatDiv                  2      0.00%     57.16% # Type of FU issued
system.cpu0.iq.FU_type_0::FloatMisc                 4      0.00%     57.16% # Type of FU issued
system.cpu0.iq.FU_type_0::FloatSqrt                 0      0.00%     57.16% # Type of FU issued
system.cpu0.iq.FU_type_0::SimdAdd                   0      0.00%     57.16% # Type of FU issued
system.cpu0.iq.FU_type_0::SimdAddAcc                0      0.00%     57.16% # Type of FU issued
system.cpu0.iq.FU_type_0::SimdAlu                   0      0.00%     57.16% # Type of FU issued
system.cpu0.iq.FU_type_0::SimdCmp                   0      0.00%     57.16% # Type of FU issued
system.cpu0.iq.FU_type_0::SimdCvt                   0      0.00%     57.16% # Type of FU issued
system.cpu0.iq.FU_type_0::SimdMisc                  0      0.00%     57.16% # Type of FU issued
system.cpu0.iq.FU_type_0::SimdMult                  0      0.00%     57.16% # Type of FU issued
system.cpu0.iq.FU_type_0::SimdMultAcc               0      0.00%     57.16% # Type of FU issued
system.cpu0.iq.FU_type_0::SimdShift                 0      0.00%     57.16% # Type of FU issued
system.cpu0.iq.FU_type_0::SimdShiftAcc              0      0.00%     57.16% # Type of FU issued
system.cpu0.iq.FU_type_0::SimdDiv                   0      0.00%     57.16% # Type of FU issued
system.cpu0.iq.FU_type_0::SimdSqrt                  0      0.00%     57.16% # Type of FU issued
system.cpu0.iq.FU_type_0::SimdFloatAdd              0      0.00%     57.16% # Type of FU issued
system.cpu0.iq.FU_type_0::SimdFloatAlu              0      0.00%     57.16% # Type of FU issued
system.cpu0.iq.FU_type_0::SimdFloatCmp              0      0.00%     57.16% # Type of FU issued
system.cpu0.iq.FU_type_0::SimdFloatCvt              0      0.00%     57.16% # Type of FU issued
system.cpu0.iq.FU_type_0::SimdFloatDiv              0      0.00%     57.16% # Type of FU issued
system.cpu0.iq.FU_type_0::SimdFloatMisc             0      0.00%     57.16% # Type of FU issued
system.cpu0.iq.FU_type_0::SimdFloatMult             0      0.00%     57.16% # Type of FU issued
system.cpu0.iq.FU_type_0::SimdFloatMultAcc            0      0.00%     57.16% # Type of FU issued
system.cpu0.iq.FU_type_0::SimdFloatSqrt             0      0.00%     57.16% # Type of FU issued
system.cpu0.iq.FU_type_0::SimdReduceAdd             0      0.00%     57.16% # Type of FU issued
system.cpu0.iq.FU_type_0::SimdReduceAlu             0      0.00%     57.16% # Type of FU issued
system.cpu0.iq.FU_type_0::SimdReduceCmp             0      0.00%     57.16% # Type of FU issued
system.cpu0.iq.FU_type_0::SimdFloatReduceAdd            0      0.00%     57.16% # Type of FU issued
system.cpu0.iq.FU_type_0::SimdFloatReduceCmp            0      0.00%     57.16% # Type of FU issued
system.cpu0.iq.FU_type_0::SimdAes                   0      0.00%     57.16% # Type of FU issued
system.cpu0.iq.FU_type_0::SimdAesMix                0      0.00%     57.16% # Type of FU issued
system.cpu0.iq.FU_type_0::SimdSha1Hash              0      0.00%     57.16% # Type of FU issued
system.cpu0.iq.FU_type_0::SimdSha1Hash2             0      0.00%     57.16% # Type of FU issued
system.cpu0.iq.FU_type_0::SimdSha256Hash            0      0.00%     57.16% # Type of FU issued
system.cpu0.iq.FU_type_0::SimdSha256Hash2            0      0.00%     57.16% # Type of FU issued
system.cpu0.iq.FU_type_0::SimdShaSigma2             0      0.00%     57.16% # Type of FU issued
system.cpu0.iq.FU_type_0::SimdShaSigma3             0      0.00%     57.16% # Type of FU issued
system.cpu0.iq.FU_type_0::SimdPredAlu               0      0.00%     57.16% # Type of FU issued
system.cpu0.iq.FU_type_0::MemRead           435213358     31.57%     88.73% # Type of FU issued
system.cpu0.iq.FU_type_0::MemWrite          155435661     11.27%    100.00% # Type of FU issued
system.cpu0.iq.FU_type_0::FloatMemRead              9      0.00%    100.00% # Type of FU issued
system.cpu0.iq.FU_type_0::FloatMemWrite            16      0.00%    100.00% # Type of FU issued
system.cpu0.iq.FU_type_0::IprAccess                 0      0.00%    100.00% # Type of FU issued
system.cpu0.iq.FU_type_0::InstPrefetch              0      0.00%    100.00% # Type of FU issued
system.cpu0.iq.FU_type_0::total            1378608058                       # Type of FU issued
system.cpu0.iq.fp_alu_accesses                     49                       # Number of floating point alu accesses
system.cpu0.iq.fp_inst_queue_reads                 96                       # Number of floating instruction queue reads
system.cpu0.iq.fp_inst_queue_wakeup_accesses           47                       # Number of floating instruction queue wakeup accesses
system.cpu0.iq.fp_inst_queue_writes                70                       # Number of floating instruction queue writes
system.cpu0.iq.fu_busy_cnt                    2795244                       # FU busy when requested
system.cpu0.iq.fu_busy_rate                  0.002028                       # FU busy rate (busy events/executed inst)
system.cpu0.iq.fu_full::No_OpClass                  0      0.00%      0.00% # attempts to use FU when none available
system.cpu0.iq.fu_full::IntAlu                 511769     18.31%     18.31% # attempts to use FU when none available
system.cpu0.iq.fu_full::IntMult                     0      0.00%     18.31% # attempts to use FU when none available
system.cpu0.iq.fu_full::IntDiv                      0      0.00%     18.31% # attempts to use FU when none available
system.cpu0.iq.fu_full::FloatAdd                    0      0.00%     18.31% # attempts to use FU when none available
system.cpu0.iq.fu_full::FloatCmp                    0      0.00%     18.31% # attempts to use FU when none available
system.cpu0.iq.fu_full::FloatCvt                    0      0.00%     18.31% # attempts to use FU when none available
system.cpu0.iq.fu_full::FloatMult                   0      0.00%     18.31% # attempts to use FU when none available
system.cpu0.iq.fu_full::FloatMultAcc                0      0.00%     18.31% # attempts to use FU when none available
system.cpu0.iq.fu_full::FloatDiv                    0      0.00%     18.31% # attempts to use FU when none available
system.cpu0.iq.fu_full::FloatMisc                   0      0.00%     18.31% # attempts to use FU when none available
system.cpu0.iq.fu_full::FloatSqrt                   0      0.00%     18.31% # attempts to use FU when none available
system.cpu0.iq.fu_full::SimdAdd                     0      0.00%     18.31% # attempts to use FU when none available
system.cpu0.iq.fu_full::SimdAddAcc                  0      0.00%     18.31% # attempts to use FU when none available
system.cpu0.iq.fu_full::SimdAlu                     0      0.00%     18.31% # attempts to use FU when none available
system.cpu0.iq.fu_full::SimdCmp                     0      0.00%     18.31% # attempts to use FU when none available
system.cpu0.iq.fu_full::SimdCvt                     0      0.00%     18.31% # attempts to use FU when none available
system.cpu0.iq.fu_full::SimdMisc                    0      0.00%     18.31% # attempts to use FU when none available
system.cpu0.iq.fu_full::SimdMult                    0      0.00%     18.31% # attempts to use FU when none available
system.cpu0.iq.fu_full::SimdMultAcc                 0      0.00%     18.31% # attempts to use FU when none available
system.cpu0.iq.fu_full::SimdShift                   0      0.00%     18.31% # attempts to use FU when none available
system.cpu0.iq.fu_full::SimdShiftAcc                0      0.00%     18.31% # attempts to use FU when none available
system.cpu0.iq.fu_full::SimdDiv                     0      0.00%     18.31% # attempts to use FU when none available
system.cpu0.iq.fu_full::SimdSqrt                    0      0.00%     18.31% # attempts to use FU when none available
system.cpu0.iq.fu_full::SimdFloatAdd                0      0.00%     18.31% # attempts to use FU when none available
system.cpu0.iq.fu_full::SimdFloatAlu                0      0.00%     18.31% # attempts to use FU when none available
system.cpu0.iq.fu_full::SimdFloatCmp                0      0.00%     18.31% # attempts to use FU when none available
system.cpu0.iq.fu_full::SimdFloatCvt                0      0.00%     18.31% # attempts to use FU when none available
system.cpu0.iq.fu_full::SimdFloatDiv                0      0.00%     18.31% # attempts to use FU when none available
system.cpu0.iq.fu_full::SimdFloatMisc               0      0.00%     18.31% # attempts to use FU when none available
system.cpu0.iq.fu_full::SimdFloatMult               0      0.00%     18.31% # attempts to use FU when none available
system.cpu0.iq.fu_full::SimdFloatMultAcc            0      0.00%     18.31% # attempts to use FU when none available
system.cpu0.iq.fu_full::SimdFloatSqrt               0      0.00%     18.31% # attempts to use FU when none available
system.cpu0.iq.fu_full::SimdReduceAdd               0      0.00%     18.31% # attempts to use FU when none available
system.cpu0.iq.fu_full::SimdReduceAlu               0      0.00%     18.31% # attempts to use FU when none available
system.cpu0.iq.fu_full::SimdReduceCmp               0      0.00%     18.31% # attempts to use FU when none available
system.cpu0.iq.fu_full::SimdFloatReduceAdd            0      0.00%     18.31% # attempts to use FU when none available
system.cpu0.iq.fu_full::SimdFloatReduceCmp            0      0.00%     18.31% # attempts to use FU when none available
system.cpu0.iq.fu_full::SimdAes                     0      0.00%     18.31% # attempts to use FU when none available
system.cpu0.iq.fu_full::SimdAesMix                  0      0.00%     18.31% # attempts to use FU when none available
system.cpu0.iq.fu_full::SimdSha1Hash                0      0.00%     18.31% # attempts to use FU when none available
system.cpu0.iq.fu_full::SimdSha1Hash2               0      0.00%     18.31% # attempts to use FU when none available
system.cpu0.iq.fu_full::SimdSha256Hash              0      0.00%     18.31% # attempts to use FU when none available
system.cpu0.iq.fu_full::SimdSha256Hash2             0      0.00%     18.31% # attempts to use FU when none available
system.cpu0.iq.fu_full::SimdShaSigma2               0      0.00%     18.31% # attempts to use FU when none available
system.cpu0.iq.fu_full::SimdShaSigma3               0      0.00%     18.31% # attempts to use FU when none available
system.cpu0.iq.fu_full::SimdPredAlu                 0      0.00%     18.31% # attempts to use FU when none available
system.cpu0.iq.fu_full::MemRead               1882962     67.36%     85.67% # attempts to use FU when none available
system.cpu0.iq.fu_full::MemWrite               400511     14.33%    100.00% # attempts to use FU when none available
system.cpu0.iq.fu_full::FloatMemRead                0      0.00%    100.00% # attempts to use FU when none available
system.cpu0.iq.fu_full::FloatMemWrite               2      0.00%    100.00% # attempts to use FU when none available
system.cpu0.iq.fu_full::IprAccess                   0      0.00%    100.00% # attempts to use FU when none available
system.cpu0.iq.fu_full::InstPrefetch                0      0.00%    100.00% # attempts to use FU when none available
system.cpu0.iq.int_alu_accesses            1377197611                       # Number of integer alu accesses
system.cpu0.iq.int_inst_queue_reads        5135270959                       # Number of integer instruction queue reads
system.cpu0.iq.int_inst_queue_wakeup_accesses   1358351300                       # Number of integer instruction queue wakeup accesses
system.cpu0.iq.int_inst_queue_writes       1448899251                       # Number of integer instruction queue writes
system.cpu0.iq.iqInstsAdded                1377462880                       # Number of instructions added to the IQ (excludes non-spec)
system.cpu0.iq.iqInstsIssued               1378608058                       # Number of instructions issued
system.cpu0.iq.iqNonSpecInstsAdded            6310200                       # Number of non-speculative instructions added to the IQ
system.cpu0.iq.iqSquashedInstsExamined       65114559                       # Number of squashed instructions iterated over during squash; mainly for profiling
system.cpu0.iq.iqSquashedInstsIssued           206982                       # Number of squashed instructions issued
system.cpu0.iq.iqSquashedNonSpecRemoved           393                       # Number of squashed non-spec instructions that were removed
system.cpu0.iq.iqSquashedOperandsExamined     26298967                       # Number of squashed operands that are examined and possibly removed from graph
system.cpu0.iq.issued_per_cycle::samples   2375052714                       # Number of insts issued each cycle
system.cpu0.iq.issued_per_cycle::mean        0.580454                       # Number of insts issued each cycle
system.cpu0.iq.issued_per_cycle::stdev       0.803316                       # Number of insts issued each cycle
system.cpu0.iq.issued_per_cycle::underflows            0      0.00%      0.00% # Number of insts issued each cycle
system.cpu0.iq.issued_per_cycle::0         1369544914     57.66%     57.66% # Number of insts issued each cycle
system.cpu0.iq.issued_per_cycle::1          704144371     29.65%     87.31% # Number of insts issued each cycle
system.cpu0.iq.issued_per_cycle::2          249840806     10.52%     97.83% # Number of insts issued each cycle
system.cpu0.iq.issued_per_cycle::3           39340899      1.66%     99.49% # Number of insts issued each cycle
system.cpu0.iq.issued_per_cycle::4            7101049      0.30%     99.79% # Number of insts issued each cycle
system.cpu0.iq.issued_per_cycle::5            3030995      0.13%     99.91% # Number of insts issued each cycle
system.cpu0.iq.issued_per_cycle::6            1345352      0.06%     99.97% # Number of insts issued each cycle
system.cpu0.iq.issued_per_cycle::7             506529      0.02%     99.99% # Number of insts issued each cycle
system.cpu0.iq.issued_per_cycle::8             197799      0.01%    100.00% # Number of insts issued each cycle
system.cpu0.iq.issued_per_cycle::overflows            0      0.00%    100.00% # Number of insts issued each cycle
system.cpu0.iq.issued_per_cycle::min_value            0                       # Number of insts issued each cycle
system.cpu0.iq.issued_per_cycle::max_value            8                       # Number of insts issued each cycle
system.cpu0.iq.issued_per_cycle::total     2375052714                       # Number of insts issued each cycle
system.cpu0.iq.rate                          0.544058                       # Inst issue rate
system.cpu0.iq.vec_alu_accesses                     0                       # Number of vector alu accesses
system.cpu0.iq.vec_inst_queue_reads                 0                       # Number of vector instruction queue reads
system.cpu0.iq.vec_inst_queue_wakeup_accesses            0                       # Number of vector instruction queue wakeup accesses
system.cpu0.iq.vec_inst_queue_writes                0                       # Number of vector instruction queue writes
system.cpu0.itb.accesses                            0                       # DTB accesses
system.cpu0.itb.hits                                0                       # DTB hits
system.cpu0.itb.misses                              0                       # DTB misses
system.cpu0.itb.read_accesses                       0                       # DTB read accesses
system.cpu0.itb.read_hits                           0                       # DTB read hits
system.cpu0.itb.read_misses                         0                       # DTB read misses
system.cpu0.itb.write_accesses                      0                       # DTB write accesses
system.cpu0.itb.write_hits                          0                       # DTB write hits
system.cpu0.itb.write_misses                        0                       # DTB write misses
system.cpu0.memDep0.conflictingLoads         18128115                       # Number of conflicting loads.
system.cpu0.memDep0.conflictingStores         1794851                       # Number of conflicting stores.
system.cpu0.memDep0.insertedLoads           430941468                       # Number of loads inserted to the mem dependence unit.
system.cpu0.memDep0.insertedStores          157993622                       # Number of stores inserted to the mem dependence unit.
system.cpu0.misc_regfile_reads                   1904                       # number of misc regfile reads
system.cpu0.misc_regfile_writes                    22                       # number of misc regfile writes
system.cpu0.numCycles                      2533935769                       # number of cpu cycles simulated
system.cpu0.numWorkItemsCompleted                   0                       # number of work items this cpu completed
system.cpu0.numWorkItemsStarted                     0                       # number of work items this cpu started
system.cpu0.quiesceCycles                     6838673                       # Total number of cycles that CPU has spent quiesced or waiting for an interrupt
system.cpu0.rename.BlockCycles              389568240                       # Number of cycles rename is blocking
system.cpu0.rename.CommittedMaps            845200354                       # Number of HB maps that are committed
system.cpu0.rename.IQFullEvents              14705496                       # Number of times rename has blocked due to IQ full
system.cpu0.rename.IdleCycles               956587522                       # Number of cycles rename is idle
system.cpu0.rename.LQFullEvents              11853791                       # Number of times rename has blocked due to LQ full
system.cpu0.rename.ROBFullEvents                23603                       # Number of times rename has blocked due to ROB full
system.cpu0.rename.RenameLookups           1714275797                       # Number of register rename lookups that rename has made
system.cpu0.rename.RenamedInsts            1395933660                       # Number of instructions processed by rename
system.cpu0.rename.RenamedOperands          905577618                       # Number of destination operands rename has renamed
system.cpu0.rename.RunCycles                968663505                       # Number of cycles rename is running
system.cpu0.rename.SQFullEvents              24192108                       # Number of times rename has blocked due to SQ full
system.cpu0.rename.SquashCycles               8789714                       # Number of cycles rename is squashing
system.cpu0.rename.UnblockCycles             51279515                       # Number of cycles rename is unblocking
system.cpu0.rename.UndoneMaps                60377256                       # Number of HB maps that are undone due to squashing
system.cpu0.rename.fp_rename_lookups               40                       # Number of floating rename lookups
system.cpu0.rename.int_rename_lookups      1714275757                       # Number of integer rename lookups
system.cpu0.rename.serializeStallCycles        164218                       # count of cycles rename stalled for serializing inst
system.cpu0.rename.serializingInsts              5936                       # count of serializing insts renamed
system.cpu0.rename.skidInsts                 30893303                       # count of insts added to the skid buffer
system.cpu0.rename.tempSerializingInsts          5928                       # count of temporary serializing insts renamed
system.cpu0.rob.rob_reads                  3710025444                       # The number of ROB reads
system.cpu0.rob.rob_writes                 2781468306                       # The number of ROB writes
system.cpu0.timesIdled                       29824400                       # Number of times that the entire CPU went into an idle state and unscheduled itself
system.cpu0.workload.numSyscalls                 1871                       # Number of system calls
system.cpu1.branchPred.BTBCorrect                   0                       # Number of correct BTB predictions (this stat may not work properly.
system.cpu1.branchPred.BTBHitPct            90.636588                       # BTB Hit Percentage
system.cpu1.branchPred.BTBHits               20651484                       # Number of BTB hits
system.cpu1.branchPred.BTBLookups            22784931                       # Number of BTB lookups
system.cpu1.branchPred.RASInCorrect                 0                       # Number of incorrect RAS predictions.
system.cpu1.branchPred.condIncorrect          2784562                       # Number of conditional branches incorrect
system.cpu1.branchPred.condPredicted         30575130                       # Number of conditional branches predicted
system.cpu1.branchPred.indirectHits           1067410                       # Number of indirect target hits.
system.cpu1.branchPred.indirectLookups        1089177                       # Number of indirect predictor lookups.
system.cpu1.branchPred.indirectMisses           21767                       # Number of indirect misses.
system.cpu1.branchPred.lookups               35166173                       # Number of BP lookups
system.cpu1.branchPred.usedRAS                      0                       # Number of times the RAS was used to get a target.
system.cpu1.branchPredindirectMispredicted        48217                       # Number of mispredicted indirect branches.
system.cpu1.commit.amos                       2099997                       # Number of atomic instructions committed
system.cpu1.commit.branchMispredicts          1981682                       # The number of times a branch was mispredicted
system.cpu1.commit.branches                  28121339                       # Number of branches committed
system.cpu1.commit.bw_lim_events              3932742                       # number cycles where commit BW limit reached
system.cpu1.commit.commitNonSpecStalls        6300678                       # The number of times commit has been forced to stall to communicate backwards
system.cpu1.commit.commitSquashedInsts       16475447                       # The number of squashed insts skipped by commit
system.cpu1.commit.committedInsts           120076388                       # Number of instructions committed
system.cpu1.commit.committedOps             122176565                       # Number of ops (including micro ops) committed
system.cpu1.commit.committed_per_cycle::samples    463260177                       # Number of insts commited each cycle
system.cpu1.commit.committed_per_cycle::mean     0.263732                       # Number of insts commited each cycle
system.cpu1.commit.committed_per_cycle::stdev     1.025975                       # Number of insts commited each cycle
system.cpu1.commit.committed_per_cycle::underflows            0      0.00%      0.00% # Number of insts commited each cycle
system.cpu1.commit.committed_per_cycle::0    413372339     89.23%     89.23% # Number of insts commited each cycle
system.cpu1.commit.committed_per_cycle::1     24741052      5.34%     94.57% # Number of insts commited each cycle
system.cpu1.commit.committed_per_cycle::2      8926315      1.93%     96.50% # Number of insts commited each cycle
system.cpu1.commit.committed_per_cycle::3      7071646      1.53%     98.03% # Number of insts commited each cycle
system.cpu1.commit.committed_per_cycle::4      1969796      0.43%     98.45% # Number of insts commited each cycle
system.cpu1.commit.committed_per_cycle::5       776683      0.17%     98.62% # Number of insts commited each cycle
system.cpu1.commit.committed_per_cycle::6      2143818      0.46%     99.08% # Number of insts commited each cycle
system.cpu1.commit.committed_per_cycle::7       325786      0.07%     99.15% # Number of insts commited each cycle
system.cpu1.commit.committed_per_cycle::8      3932742      0.85%    100.00% # Number of insts commited each cycle
system.cpu1.commit.committed_per_cycle::overflows            0      0.00%    100.00% # Number of insts commited each cycle
system.cpu1.commit.committed_per_cycle::min_value            0                       # Number of insts commited each cycle
system.cpu1.commit.committed_per_cycle::max_value            8                       # Number of insts commited each cycle
system.cpu1.commit.committed_per_cycle::total    463260177                       # Number of insts commited each cycle
system.cpu1.commit.fp_insts                        12                       # Number of committed floating point instructions.
system.cpu1.commit.function_calls             1798263                       # Number of function calls committed.
system.cpu1.commit.int_insts                116613525                       # Number of committed integer instructions.
system.cpu1.commit.loads                     30177668                       # Number of loads committed
system.cpu1.commit.membars                    4200119                       # Number of memory barriers committed
system.cpu1.commit.op_class_0::No_OpClass      4200119      3.44%      3.44% # Class of committed instruction
system.cpu1.commit.op_class_0::IntAlu        76675162     62.76%     66.20% # Class of committed instruction
system.cpu1.commit.op_class_0::IntMult             44      0.00%     66.20% # Class of committed instruction
system.cpu1.commit.op_class_0::IntDiv              88      0.00%     66.20% # Class of committed instruction
system.cpu1.commit.op_class_0::FloatAdd             0      0.00%     66.20% # Class of committed instruction
system.cpu1.commit.op_class_0::FloatCmp             0      0.00%     66.20% # Class of committed instruction
system.cpu1.commit.op_class_0::FloatCvt             0      0.00%     66.20% # Class of committed instruction
system.cpu1.commit.op_class_0::FloatMult            0      0.00%     66.20% # Class of committed instruction
system.cpu1.commit.op_class_0::FloatMultAcc            0      0.00%     66.20% # Class of committed instruction
system.cpu1.commit.op_class_0::FloatDiv             0      0.00%     66.20% # Class of committed instruction
system.cpu1.commit.op_class_0::FloatMisc            0      0.00%     66.20% # Class of committed instruction
system.cpu1.commit.op_class_0::FloatSqrt            0      0.00%     66.20% # Class of committed instruction
system.cpu1.commit.op_class_0::SimdAdd              0      0.00%     66.20% # Class of committed instruction
system.cpu1.commit.op_class_0::SimdAddAcc            0      0.00%     66.20% # Class of committed instruction
system.cpu1.commit.op_class_0::SimdAlu              0      0.00%     66.20% # Class of committed instruction
system.cpu1.commit.op_class_0::SimdCmp              0      0.00%     66.20% # Class of committed instruction
system.cpu1.commit.op_class_0::SimdCvt              0      0.00%     66.20% # Class of committed instruction
system.cpu1.commit.op_class_0::SimdMisc             0      0.00%     66.20% # Class of committed instruction
system.cpu1.commit.op_class_0::SimdMult             0      0.00%     66.20% # Class of committed instruction
system.cpu1.commit.op_class_0::SimdMultAcc            0      0.00%     66.20% # Class of committed instruction
system.cpu1.commit.op_class_0::SimdShift            0      0.00%     66.20% # Class of committed instruction
system.cpu1.commit.op_class_0::SimdShiftAcc            0      0.00%     66.20% # Class of committed instruction
system.cpu1.commit.op_class_0::SimdDiv              0      0.00%     66.20% # Class of committed instruction
system.cpu1.commit.op_class_0::SimdSqrt             0      0.00%     66.20% # Class of committed instruction
system.cpu1.commit.op_class_0::SimdFloatAdd            0      0.00%     66.20% # Class of committed instruction
system.cpu1.commit.op_class_0::SimdFloatAlu            0      0.00%     66.20% # Class of committed instruction
system.cpu1.commit.op_class_0::SimdFloatCmp            0      0.00%     66.20% # Class of committed instruction
system.cpu1.commit.op_class_0::SimdFloatCvt            0      0.00%     66.20% # Class of committed instruction
system.cpu1.commit.op_class_0::SimdFloatDiv            0      0.00%     66.20% # Class of committed instruction
system.cpu1.commit.op_class_0::SimdFloatMisc            0      0.00%     66.20% # Class of committed instruction
system.cpu1.commit.op_class_0::SimdFloatMult            0      0.00%     66.20% # Class of committed instruction
system.cpu1.commit.op_class_0::SimdFloatMultAcc            0      0.00%     66.20% # Class of committed instruction
system.cpu1.commit.op_class_0::SimdFloatSqrt            0      0.00%     66.20% # Class of committed instruction
system.cpu1.commit.op_class_0::SimdReduceAdd            0      0.00%     66.20% # Class of committed instruction
system.cpu1.commit.op_class_0::SimdReduceAlu            0      0.00%     66.20% # Class of committed instruction
system.cpu1.commit.op_class_0::SimdReduceCmp            0      0.00%     66.20% # Class of committed instruction
system.cpu1.commit.op_class_0::SimdFloatReduceAdd            0      0.00%     66.20% # Class of committed instruction
system.cpu1.commit.op_class_0::SimdFloatReduceCmp            0      0.00%     66.20% # Class of committed instruction
system.cpu1.commit.op_class_0::SimdAes              0      0.00%     66.20% # Class of committed instruction
system.cpu1.commit.op_class_0::SimdAesMix            0      0.00%     66.20% # Class of committed instruction
system.cpu1.commit.op_class_0::SimdSha1Hash            0      0.00%     66.20% # Class of committed instruction
system.cpu1.commit.op_class_0::SimdSha1Hash2            0      0.00%     66.20% # Class of committed instruction
system.cpu1.commit.op_class_0::SimdSha256Hash            0      0.00%     66.20% # Class of committed instruction
system.cpu1.commit.op_class_0::SimdSha256Hash2            0      0.00%     66.20% # Class of committed instruction
system.cpu1.commit.op_class_0::SimdShaSigma2            0      0.00%     66.20% # Class of committed instruction
system.cpu1.commit.op_class_0::SimdShaSigma3            0      0.00%     66.20% # Class of committed instruction
system.cpu1.commit.op_class_0::SimdPredAlu            0      0.00%     66.20% # Class of committed instruction
system.cpu1.commit.op_class_0::MemRead       32277665     26.42%     92.61% # Class of committed instruction
system.cpu1.commit.op_class_0::MemWrite       9023475      7.39%    100.00% # Class of committed instruction
system.cpu1.commit.op_class_0::FloatMemRead            0      0.00%    100.00% # Class of committed instruction
system.cpu1.commit.op_class_0::FloatMemWrite           12      0.00%    100.00% # Class of committed instruction
system.cpu1.commit.op_class_0::IprAccess            0      0.00%    100.00% # Class of committed instruction
system.cpu1.commit.op_class_0::InstPrefetch            0      0.00%    100.00% # Class of committed instruction
system.cpu1.commit.op_class_0::total        122176565                       # Class of committed instruction
system.cpu1.commit.refs                      41301152                       # Number of memory references committed
system.cpu1.commit.swp_count                        0                       # Number of s/w prefetches committed
system.cpu1.commit.vec_insts                        0                       # Number of committed Vector instructions.
system.cpu1.committedInsts                  120076388                       # Number of Instructions Simulated
system.cpu1.committedOps                    122176565                       # Number of Ops (including micro ops) Simulated
system.cpu1.cpi                              3.889641                       # CPI: Cycles Per Instruction
system.cpu1.cpi_total                        3.889641                       # CPI: Total CPI of All Threads
system.cpu1.decode.BlockedCycles            369382036                       # Number of cycles decode is blocked
system.cpu1.decode.BranchMispred               881264                       # Number of times decode detected a branch misprediction
system.cpu1.decode.BranchResolved            19724321                       # Number of times decode resolved a branch
system.cpu1.decode.DecodedInsts             145390749                       # Number of instructions handled by decode
system.cpu1.decode.IdleCycles                23336512                       # Number of cycles decode is idle
system.cpu1.decode.RunCycles                 66772095                       # Number of cycles decode is running
system.cpu1.decode.SquashCycles               1983080                       # Number of cycles decode is squashing
system.cpu1.decode.SquashedInsts              2055278                       # Number of squashed instructions handled by decode
system.cpu1.decode.UnblockCycles              5142478                       # Number of cycles decode is unblocking
system.cpu1.dtb.accesses                            0                       # DTB accesses
system.cpu1.dtb.hits                                0                       # DTB hits
system.cpu1.dtb.misses                              0                       # DTB misses
system.cpu1.dtb.read_accesses                       0                       # DTB read accesses
system.cpu1.dtb.read_hits                           0                       # DTB read hits
system.cpu1.dtb.read_misses                         0                       # DTB read misses
system.cpu1.dtb.write_accesses                      0                       # DTB write accesses
system.cpu1.dtb.write_hits                          0                       # DTB write hits
system.cpu1.dtb.write_misses                        0                       # DTB write misses
system.cpu1.fetch.Branches                   35166173                       # Number of branches that fetch encountered
system.cpu1.fetch.CacheLines                 21594367                       # Number of cache lines fetched
system.cpu1.fetch.Cycles                    440594196                       # Number of cycles fetch has run and was not squashing or blocked
system.cpu1.fetch.IcacheSquashes               202825                       # Number of outstanding Icache misses that were squashed
system.cpu1.fetch.Insts                     150719207                       # Number of instructions fetch has processed
system.cpu1.fetch.MiscStallCycles                   1                       # Number of cycles fetch has spent waiting on interrupts, or bad addresses, or out of MSHRs
system.cpu1.fetch.SquashCycles                5571920                       # Number of cycles fetch has spent squashing
system.cpu1.fetch.branchRate                 0.075294                       # Number of branch fetches per cycle
system.cpu1.fetch.icacheStallCycles          23236044                       # Number of cycles fetch is stalled on an Icache miss
system.cpu1.fetch.predictedBranches          21718894                       # Number of branches that fetch has predicted taken
system.cpu1.fetch.rate                       0.322702                       # Number of inst fetches per cycle
system.cpu1.fetch.rateDist::samples         466616201                       # Number of instructions fetched each cycle (Total)
system.cpu1.fetch.rateDist::mean             0.327506                       # Number of instructions fetched each cycle (Total)
system.cpu1.fetch.rateDist::stdev            0.753973                       # Number of instructions fetched each cycle (Total)
system.cpu1.fetch.rateDist::underflows              0      0.00%      0.00% # Number of instructions fetched each cycle (Total)
system.cpu1.fetch.rateDist::0               369784718     79.25%     79.25% # Number of instructions fetched each cycle (Total)
system.cpu1.fetch.rateDist::1                61078453     13.09%     92.34% # Number of instructions fetched each cycle (Total)
system.cpu1.fetch.rateDist::2                19838768      4.25%     96.59% # Number of instructions fetched each cycle (Total)
system.cpu1.fetch.rateDist::3                12226941      2.62%     99.21% # Number of instructions fetched each cycle (Total)
system.cpu1.fetch.rateDist::4                 3119219      0.67%     99.88% # Number of instructions fetched each cycle (Total)
system.cpu1.fetch.rateDist::5                  503613      0.11%     99.99% # Number of instructions fetched each cycle (Total)
system.cpu1.fetch.rateDist::6                   63701      0.01%    100.00% # Number of instructions fetched each cycle (Total)
system.cpu1.fetch.rateDist::7                     572      0.00%    100.00% # Number of instructions fetched each cycle (Total)
system.cpu1.fetch.rateDist::8                     216      0.00%    100.00% # Number of instructions fetched each cycle (Total)
system.cpu1.fetch.rateDist::overflows               0      0.00%    100.00% # Number of instructions fetched each cycle (Total)
system.cpu1.fetch.rateDist::min_value               0                       # Number of instructions fetched each cycle (Total)
system.cpu1.fetch.rateDist::max_value               8                       # Number of instructions fetched each cycle (Total)
system.cpu1.fetch.rateDist::total           466616201                       # Number of instructions fetched each cycle (Total)
system.cpu1.fp_regfile_reads                       12                       # number of floating regfile reads
system.cpu1.idleCycles                         437827                       # Total number of cycles that the CPU has spent unscheduled due to idling
system.cpu1.iew.branchMispredicts             2080965                       # Number of branch mispredicts detected at execute
system.cpu1.iew.exec_branches                30536132                       # Number of branches executed
system.cpu1.iew.exec_nop                            0                       # number of nop insts executed
system.cpu1.iew.exec_rate                    0.285724                       # Inst execution rate
system.cpu1.iew.exec_refs                    45544536                       # number of memory reference insts executed
system.cpu1.iew.exec_stores                  11540777                       # Number of stores executed
system.cpu1.iew.exec_swp                            0                       # number of swp insts executed
system.cpu1.iew.iewBlockCycles              307948650                       # Number of cycles IEW is blocking
system.cpu1.iew.iewDispLoadInsts             34839761                       # Number of dispatched load instructions
system.cpu1.iew.iewDispNonSpecInsts           2100671                       # Number of dispatched non-speculative instructions
system.cpu1.iew.iewDispSquashedInsts          1969393                       # Number of squashed instructions skipped by dispatch
system.cpu1.iew.iewDispStoreInsts            11924532                       # Number of dispatched store instructions
system.cpu1.iew.iewDispatchedInsts          138608511                       # Number of instructions dispatched to IQ
system.cpu1.iew.iewExecLoadInsts             34003759                       # Number of load instructions executed
system.cpu1.iew.iewExecSquashedInsts          2010288                       # Number of squashed instructions skipped in execute
system.cpu1.iew.iewExecutedInsts            133448621                       # Number of executed instructions
system.cpu1.iew.iewIQFullEvents               1836200                       # Number of times the IQ has become full, causing a stall
system.cpu1.iew.iewIdleCycles                       0                       # Number of cycles IEW is idle
system.cpu1.iew.iewLSQFullEvents              6053757                       # Number of times the LSQ has become full, causing a stall
system.cpu1.iew.iewSquashCycles               1983080                       # Number of cycles IEW is squashing
system.cpu1.iew.iewUnblockCycles             10229024                       # Number of cycles IEW is unblocking
system.cpu1.iew.lsq.thread0.blockedLoads            0                       # Number of blocked loads due to partial load-store forwarding
system.cpu1.iew.lsq.thread0.cacheBlocked        88618                       # Number of times an access to memory failed due to the cache being blocked
system.cpu1.iew.lsq.thread0.forwLoads         1033708                       # Number of loads that had data forwarded from stores
system.cpu1.iew.lsq.thread0.ignoredResponses        30558                       # Number of memory responses ignored because the instruction is squashed
system.cpu1.iew.lsq.thread0.invAddrLoads            0                       # Number of loads ignored due to an invalid address
system.cpu1.iew.lsq.thread0.invAddrSwpfs            0                       # Number of software prefetches ignored due to an invalid address
system.cpu1.iew.lsq.thread0.memOrderViolation         1835                       # Number of memory ordering violations
system.cpu1.iew.lsq.thread0.rescheduledLoads        13810                       # Number of loads that were rescheduled
system.cpu1.iew.lsq.thread0.squashedLoads      4662093                       # Number of loads squashed
system.cpu1.iew.lsq.thread0.squashedStores       801048                       # Number of stores squashed
system.cpu1.iew.memOrderViolationEvents          1835                       # Number of memory order violations
system.cpu1.iew.predictedNotTakenIncorrect       537492                       # Number of branches that were predicted not taken incorrectly
system.cpu1.iew.predictedTakenIncorrect       1543473                       # Number of branches that were predicted taken incorrectly
system.cpu1.iew.wb_consumers                 75124392                       # num instructions consuming a value
system.cpu1.iew.wb_count                    131927325                       # cumulative count of insts written-back
system.cpu1.iew.wb_fanout                    0.857051                       # average fanout of values written-back
system.cpu1.iew.wb_producers                 64385455                       # num instructions producing a value
system.cpu1.iew.wb_rate                      0.282467                       # insts written-back per cycle
system.cpu1.iew.wb_sent                     131991033                       # cumulative count of insts sent to commit
system.cpu1.int_regfile_reads               169315478                       # number of integer regfile reads
system.cpu1.int_regfile_writes               88832883                       # number of integer regfile writes
system.cpu1.ipc                              0.257093                       # IPC: Instructions Per Cycle
system.cpu1.ipc_total                        0.257093                       # IPC: Total IPC of All Threads
system.cpu1.iq.FU_type_0::No_OpClass          4200229      3.10%      3.10% # Type of FU issued
system.cpu1.iq.FU_type_0::IntAlu             85160637     62.87%     65.97% # Type of FU issued
system.cpu1.iq.FU_type_0::IntMult                  45      0.00%     65.97% # Type of FU issued
system.cpu1.iq.FU_type_0::IntDiv                   90      0.00%     65.97% # Type of FU issued
system.cpu1.iq.FU_type_0::FloatAdd                  0      0.00%     65.97% # Type of FU issued
system.cpu1.iq.FU_type_0::FloatCmp                  0      0.00%     65.97% # Type of FU issued
system.cpu1.iq.FU_type_0::FloatCvt                  0      0.00%     65.97% # Type of FU issued
system.cpu1.iq.FU_type_0::FloatMult                 0      0.00%     65.97% # Type of FU issued
system.cpu1.iq.FU_type_0::FloatMultAcc              0      0.00%     65.97% # Type of FU issued
system.cpu1.iq.FU_type_0::FloatDiv                  0      0.00%     65.97% # Type of FU issued
system.cpu1.iq.FU_type_0::FloatMisc                 0      0.00%     65.97% # Type of FU issued
system.cpu1.iq.FU_type_0::FloatSqrt                 0      0.00%     65.97% # Type of FU issued
system.cpu1.iq.FU_type_0::SimdAdd                   0      0.00%     65.97% # Type of FU issued
system.cpu1.iq.FU_type_0::SimdAddAcc                0      0.00%     65.97% # Type of FU issued
system.cpu1.iq.FU_type_0::SimdAlu                   0      0.00%     65.97% # Type of FU issued
system.cpu1.iq.FU_type_0::SimdCmp                   0      0.00%     65.97% # Type of FU issued
system.cpu1.iq.FU_type_0::SimdCvt                   0      0.00%     65.97% # Type of FU issued
system.cpu1.iq.FU_type_0::SimdMisc                  0      0.00%     65.97% # Type of FU issued
system.cpu1.iq.FU_type_0::SimdMult                  0      0.00%     65.97% # Type of FU issued
system.cpu1.iq.FU_type_0::SimdMultAcc               0      0.00%     65.97% # Type of FU issued
system.cpu1.iq.FU_type_0::SimdShift                 0      0.00%     65.97% # Type of FU issued
system.cpu1.iq.FU_type_0::SimdShiftAcc              0      0.00%     65.97% # Type of FU issued
system.cpu1.iq.FU_type_0::SimdDiv                   0      0.00%     65.97% # Type of FU issued
system.cpu1.iq.FU_type_0::SimdSqrt                  0      0.00%     65.97% # Type of FU issued
system.cpu1.iq.FU_type_0::SimdFloatAdd              0      0.00%     65.97% # Type of FU issued
system.cpu1.iq.FU_type_0::SimdFloatAlu              0      0.00%     65.97% # Type of FU issued
system.cpu1.iq.FU_type_0::SimdFloatCmp              0      0.00%     65.97% # Type of FU issued
system.cpu1.iq.FU_type_0::SimdFloatCvt              0      0.00%     65.97% # Type of FU issued
system.cpu1.iq.FU_type_0::SimdFloatDiv              0      0.00%     65.97% # Type of FU issued
system.cpu1.iq.FU_type_0::SimdFloatMisc             0      0.00%     65.97% # Type of FU issued
system.cpu1.iq.FU_type_0::SimdFloatMult             0      0.00%     65.97% # Type of FU issued
system.cpu1.iq.FU_type_0::SimdFloatMultAcc            0      0.00%     65.97% # Type of FU issued
system.cpu1.iq.FU_type_0::SimdFloatSqrt             0      0.00%     65.97% # Type of FU issued
system.cpu1.iq.FU_type_0::SimdReduceAdd             0      0.00%     65.97% # Type of FU issued
system.cpu1.iq.FU_type_0::SimdReduceAlu             0      0.00%     65.97% # Type of FU issued
system.cpu1.iq.FU_type_0::SimdReduceCmp             0      0.00%     65.97% # Type of FU issued
system.cpu1.iq.FU_type_0::SimdFloatReduceAdd            0      0.00%     65.97% # Type of FU issued
system.cpu1.iq.FU_type_0::SimdFloatReduceCmp            0      0.00%     65.97% # Type of FU issued
system.cpu1.iq.FU_type_0::SimdAes                   0      0.00%     65.97% # Type of FU issued
system.cpu1.iq.FU_type_0::SimdAesMix                0      0.00%     65.97% # Type of FU issued
system.cpu1.iq.FU_type_0::SimdSha1Hash              0      0.00%     65.97% # Type of FU issued
system.cpu1.iq.FU_type_0::SimdSha1Hash2             0      0.00%     65.97% # Type of FU issued
system.cpu1.iq.FU_type_0::SimdSha256Hash            0      0.00%     65.97% # Type of FU issued
system.cpu1.iq.FU_type_0::SimdSha256Hash2            0      0.00%     65.97% # Type of FU issued
system.cpu1.iq.FU_type_0::SimdShaSigma2             0      0.00%     65.97% # Type of FU issued
system.cpu1.iq.FU_type_0::SimdShaSigma3             0      0.00%     65.97% # Type of FU issued
system.cpu1.iq.FU_type_0::SimdPredAlu               0      0.00%     65.97% # Type of FU issued
system.cpu1.iq.FU_type_0::MemRead            36570448     27.00%     92.97% # Type of FU issued
system.cpu1.iq.FU_type_0::MemWrite            9527448      7.03%    100.00% # Type of FU issued
system.cpu1.iq.FU_type_0::FloatMemRead              0      0.00%    100.00% # Type of FU issued
system.cpu1.iq.FU_type_0::FloatMemWrite            12      0.00%    100.00% # Type of FU issued
system.cpu1.iq.FU_type_0::IprAccess                 0      0.00%    100.00% # Type of FU issued
system.cpu1.iq.FU_type_0::InstPrefetch              0      0.00%    100.00% # Type of FU issued
system.cpu1.iq.FU_type_0::total             135458909                       # Type of FU issued
system.cpu1.iq.fp_alu_accesses                     14                       # Number of floating point alu accesses
system.cpu1.iq.fp_inst_queue_reads                 26                       # Number of floating instruction queue reads
system.cpu1.iq.fp_inst_queue_wakeup_accesses           12                       # Number of floating instruction queue wakeup accesses
system.cpu1.iq.fp_inst_queue_writes                12                       # Number of floating instruction queue writes
system.cpu1.iq.fu_busy_cnt                    2782150                       # FU busy when requested
system.cpu1.iq.fu_busy_rate                  0.020539                       # FU busy rate (busy events/executed inst)
system.cpu1.iq.fu_full::No_OpClass                  0      0.00%      0.00% # attempts to use FU when none available
system.cpu1.iq.fu_full::IntAlu                 534287     19.20%     19.20% # attempts to use FU when none available
system.cpu1.iq.fu_full::IntMult                     0      0.00%     19.20% # attempts to use FU when none available
system.cpu1.iq.fu_full::IntDiv                      0      0.00%     19.20% # attempts to use FU when none available
system.cpu1.iq.fu_full::FloatAdd                    0      0.00%     19.20% # attempts to use FU when none available
system.cpu1.iq.fu_full::FloatCmp                    0      0.00%     19.20% # attempts to use FU when none available
system.cpu1.iq.fu_full::FloatCvt                    0      0.00%     19.20% # attempts to use FU when none available
system.cpu1.iq.fu_full::FloatMult                   0      0.00%     19.20% # attempts to use FU when none available
system.cpu1.iq.fu_full::FloatMultAcc                0      0.00%     19.20% # attempts to use FU when none available
system.cpu1.iq.fu_full::FloatDiv                    0      0.00%     19.20% # attempts to use FU when none available
system.cpu1.iq.fu_full::FloatMisc                   0      0.00%     19.20% # attempts to use FU when none available
system.cpu1.iq.fu_full::FloatSqrt                   0      0.00%     19.20% # attempts to use FU when none available
system.cpu1.iq.fu_full::SimdAdd                     0      0.00%     19.20% # attempts to use FU when none available
system.cpu1.iq.fu_full::SimdAddAcc                  0      0.00%     19.20% # attempts to use FU when none available
system.cpu1.iq.fu_full::SimdAlu                     0      0.00%     19.20% # attempts to use FU when none available
system.cpu1.iq.fu_full::SimdCmp                     0      0.00%     19.20% # attempts to use FU when none available
system.cpu1.iq.fu_full::SimdCvt                     0      0.00%     19.20% # attempts to use FU when none available
system.cpu1.iq.fu_full::SimdMisc                    0      0.00%     19.20% # attempts to use FU when none available
system.cpu1.iq.fu_full::SimdMult                    0      0.00%     19.20% # attempts to use FU when none available
system.cpu1.iq.fu_full::SimdMultAcc                 0      0.00%     19.20% # attempts to use FU when none available
system.cpu1.iq.fu_full::SimdShift                   0      0.00%     19.20% # attempts to use FU when none available
system.cpu1.iq.fu_full::SimdShiftAcc                0      0.00%     19.20% # attempts to use FU when none available
system.cpu1.iq.fu_full::SimdDiv                     0      0.00%     19.20% # attempts to use FU when none available
system.cpu1.iq.fu_full::SimdSqrt                    0      0.00%     19.20% # attempts to use FU when none available
system.cpu1.iq.fu_full::SimdFloatAdd                0      0.00%     19.20% # attempts to use FU when none available
system.cpu1.iq.fu_full::SimdFloatAlu                0      0.00%     19.20% # attempts to use FU when none available
system.cpu1.iq.fu_full::SimdFloatCmp                0      0.00%     19.20% # attempts to use FU when none available
system.cpu1.iq.fu_full::SimdFloatCvt                0      0.00%     19.20% # attempts to use FU when none available
system.cpu1.iq.fu_full::SimdFloatDiv                0      0.00%     19.20% # attempts to use FU when none available
system.cpu1.iq.fu_full::SimdFloatMisc               0      0.00%     19.20% # attempts to use FU when none available
system.cpu1.iq.fu_full::SimdFloatMult               0      0.00%     19.20% # attempts to use FU when none available
system.cpu1.iq.fu_full::SimdFloatMultAcc            0      0.00%     19.20% # attempts to use FU when none available
system.cpu1.iq.fu_full::SimdFloatSqrt               0      0.00%     19.20% # attempts to use FU when none available
system.cpu1.iq.fu_full::SimdReduceAdd               0      0.00%     19.20% # attempts to use FU when none available
system.cpu1.iq.fu_full::SimdReduceAlu               0      0.00%     19.20% # attempts to use FU when none available
system.cpu1.iq.fu_full::SimdReduceCmp               0      0.00%     19.20% # attempts to use FU when none available
system.cpu1.iq.fu_full::SimdFloatReduceAdd            0      0.00%     19.20% # attempts to use FU when none available
system.cpu1.iq.fu_full::SimdFloatReduceCmp            0      0.00%     19.20% # attempts to use FU when none available
system.cpu1.iq.fu_full::SimdAes                     0      0.00%     19.20% # attempts to use FU when none available
system.cpu1.iq.fu_full::SimdAesMix                  0      0.00%     19.20% # attempts to use FU when none available
system.cpu1.iq.fu_full::SimdSha1Hash                0      0.00%     19.20% # attempts to use FU when none available
system.cpu1.iq.fu_full::SimdSha1Hash2               0      0.00%     19.20% # attempts to use FU when none available
system.cpu1.iq.fu_full::SimdSha256Hash              0      0.00%     19.20% # attempts to use FU when none available
system.cpu1.iq.fu_full::SimdSha256Hash2             0      0.00%     19.20% # attempts to use FU when none available
system.cpu1.iq.fu_full::SimdShaSigma2               0      0.00%     19.20% # attempts to use FU when none available
system.cpu1.iq.fu_full::SimdShaSigma3               0      0.00%     19.20% # attempts to use FU when none available
system.cpu1.iq.fu_full::SimdPredAlu                 0      0.00%     19.20% # attempts to use FU when none available
system.cpu1.iq.fu_full::MemRead               1798830     64.66%     83.86% # attempts to use FU when none available
system.cpu1.iq.fu_full::MemWrite               449031     16.14%    100.00% # attempts to use FU when none available
[...]
system.cpu1.dcache.ReadReq_avg_miss_latency::total 82263.131761                       # average ReadReq miss latency
system.cpu1.dcache.ReadReq_mshr_hits::.cpu1.data     28391322                       # number of ReadReq MSHR hits
system.cpu1.dcache.ReadReq_mshr_hits::total     28391322                       # number of ReadReq MSHR hits
system.cpu1.dcache.ReadReq_mshr_misses::.cpu1.data     14261393                       # number of ReadReq MSHR misses
system.cpu1.dcache.ReadReq_mshr_misses::total     14261393                       # number of ReadReq MSHR misses
system.cpu1.dcache.ReadReq_mshr_miss_latency::.cpu1.data 1498170739500                       # number of ReadReq MSHR miss cycles
system.cpu1.dcache.ReadReq_mshr_miss_latency::total 1498170739500                       # number of ReadReq MSHR miss cycles
system.cpu1.dcache.ReadReq_mshr_miss_rate::.cpu1.data     0.092480                       # mshr miss rate for ReadReq accesses
system.cpu1.dcache.ReadReq_mshr_miss_rate::total     0.092480                       # mshr miss rate for ReadReq accesses
system.cpu1.dcache.ReadReq_avg_mshr_miss_latency::.cpu1.data 105050.799701                       # average ReadReq mshr miss latency
system.cpu1.dcache.ReadReq_avg_mshr_miss_latency::total 105050.799701                       # average ReadReq mshr miss latency
system.cpu1.dcache.WriteReq_hits::.cpu1.data      5654848                       # number of WriteReq hits
system.cpu1.dcache.WriteReq_hits::total       5654848                       # number of WriteReq hits
system.cpu1.dcache.WriteReq_misses::.cpu1.data      2083588                       # number of WriteReq misses
system.cpu1.dcache.WriteReq_misses::total      2083588                       # number of WriteReq misses
system.cpu1.dcache.WriteReq_miss_latency::.cpu1.data 131148953889                       # number of WriteReq miss cycles
system.cpu1.dcache.WriteReq_miss_latency::total 131148953889                       # number of WriteReq miss cycles
system.cpu1.dcache.WriteReq_accesses::.cpu1.data      7738436                       # number of WriteReq accesses(hits+misses)
system.cpu1.dcache.WriteReq_accesses::total      7738436                       # number of WriteReq accesses(hits+misses)
system.cpu1.dcache.WriteReq_miss_rate::.cpu1.data     0.269252                       # miss rate for WriteReq accesses
system.cpu1.dcache.WriteReq_miss_rate::total     0.269252                       # miss rate for WriteReq accesses
system.cpu1.dcache.WriteReq_avg_miss_latency::.cpu1.data 62943.803616                       # average WriteReq miss latency
system.cpu1.dcache.WriteReq_avg_miss_latency::total 62943.803616                       # average WriteReq miss latency
system.cpu1.dcache.WriteReq_mshr_hits::.cpu1.data      1867216                       # number of WriteReq MSHR hits
system.cpu1.dcache.WriteReq_mshr_hits::total      1867216                       # number of WriteReq MSHR hits
system.cpu1.dcache.WriteReq_mshr_misses::.cpu1.data       216372                       # number of WriteReq MSHR misses
system.cpu1.dcache.WriteReq_mshr_misses::total       216372                       # number of WriteReq MSHR misses
system.cpu1.dcache.WriteReq_mshr_miss_latency::.cpu1.data  12271175892                       # number of WriteReq MSHR miss cycles
system.cpu1.dcache.WriteReq_mshr_miss_latency::total  12271175892                       # number of WriteReq MSHR miss cycles
system.cpu1.dcache.WriteReq_mshr_miss_rate::.cpu1.data     0.027961                       # mshr miss rate for WriteReq accesses
system.cpu1.dcache.WriteReq_mshr_miss_rate::total     0.027961                       # mshr miss rate for WriteReq accesses
system.cpu1.dcache.WriteReq_avg_mshr_miss_latency::.cpu1.data 56713.326549                       # average WriteReq mshr miss latency
system.cpu1.dcache.WriteReq_avg_mshr_miss_latency::total 56713.326549                       # average WriteReq mshr miss latency
system.cpu1.dcache.LoadLockedReq_hits::.cpu1.data         1262                       # number of LoadLockedReq hits
system.cpu1.dcache.LoadLockedReq_hits::total         1262                       # number of LoadLockedReq hits
system.cpu1.dcache.LoadLockedReq_misses::.cpu1.data          258                       # number of LoadLockedReq misses
system.cpu1.dcache.LoadLockedReq_misses::total          258                       # number of LoadLockedReq misses
system.cpu1.dcache.LoadLockedReq_miss_latency::.cpu1.data     23438500                       # number of LoadLockedReq miss cycles
system.cpu1.dcache.LoadLockedReq_miss_latency::total     23438500                       # number of LoadLockedReq miss cycles
system.cpu1.dcache.LoadLockedReq_accesses::.cpu1.data         1520                       # number of LoadLockedReq accesses(hits+misses)
system.cpu1.dcache.LoadLockedReq_accesses::total         1520                       # number of LoadLockedReq accesses(hits+misses)
system.cpu1.dcache.LoadLockedReq_miss_rate::.cpu1.data     0.169737                       # miss rate for LoadLockedReq accesses
system.cpu1.dcache.LoadLockedReq_miss_rate::total     0.169737                       # miss rate for LoadLockedReq accesses
system.cpu1.dcache.LoadLockedReq_avg_miss_latency::.cpu1.data 90846.899225                       # average LoadLockedReq miss latency
system.cpu1.dcache.LoadLockedReq_avg_miss_latency::total 90846.899225                       # average LoadLockedReq miss latency
system.cpu1.dcache.LoadLockedReq_mshr_hits::.cpu1.data          111                       # number of LoadLockedReq MSHR hits
system.cpu1.dcache.LoadLockedReq_mshr_hits::total          111                       # number of LoadLockedReq MSHR hits
system.cpu1.dcache.LoadLockedReq_mshr_misses::.cpu1.data          147                       # number of LoadLockedReq MSHR misses
system.cpu1.dcache.LoadLockedReq_mshr_misses::total          147                       # number of LoadLockedReq MSHR misses
system.cpu1.dcache.LoadLockedReq_mshr_miss_latency::.cpu1.data     12717500                       # number of LoadLockedReq MSHR miss cycles
system.cpu1.dcache.LoadLockedReq_mshr_miss_latency::total     12717500                       # number of LoadLockedReq MSHR miss cycles
system.cpu1.dcache.LoadLockedReq_mshr_miss_rate::.cpu1.data     0.096711                       # mshr miss rate for LoadLockedReq accesses
system.cpu1.dcache.LoadLockedReq_mshr_miss_rate::total     0.096711                       # mshr miss rate for LoadLockedReq accesses
system.cpu1.dcache.LoadLockedReq_avg_mshr_miss_latency::.cpu1.data 86513.605442                       # average LoadLockedReq mshr miss latency
system.cpu1.dcache.LoadLockedReq_avg_mshr_miss_latency::total 86513.605442                       # average LoadLockedReq mshr miss latency
system.cpu1.dcache.StoreCondReq_hits::.cpu1.data         1016                       # number of StoreCondReq hits
system.cpu1.dcache.StoreCondReq_hits::total         1016                       # number of StoreCondReq hits
system.cpu1.dcache.StoreCondReq_misses::.cpu1.data          422                       # number of StoreCondReq misses
system.cpu1.dcache.StoreCondReq_misses::total          422                       # number of StoreCondReq misses
system.cpu1.dcache.StoreCondReq_miss_latency::.cpu1.data      4036500                       # number of StoreCondReq miss cycles
system.cpu1.dcache.StoreCondReq_miss_latency::total      4036500                       # number of StoreCondReq miss cycles
system.cpu1.dcache.StoreCondReq_accesses::.cpu1.data         1438                       # number of StoreCondReq accesses(hits+misses)
system.cpu1.dcache.StoreCondReq_accesses::total         1438                       # number of StoreCondReq accesses(hits+misses)
system.cpu1.dcache.StoreCondReq_miss_rate::.cpu1.data     0.293463                       # miss rate for StoreCondReq accesses
system.cpu1.dcache.StoreCondReq_miss_rate::total     0.293463                       # miss rate for StoreCondReq accesses
system.cpu1.dcache.StoreCondReq_avg_miss_latency::.cpu1.data  9565.165877                       # average StoreCondReq miss latency
system.cpu1.dcache.StoreCondReq_avg_miss_latency::total  9565.165877                       # average StoreCondReq miss latency
system.cpu1.dcache.StoreCondReq_mshr_misses::.cpu1.data          422                       # number of StoreCondReq MSHR misses
system.cpu1.dcache.StoreCondReq_mshr_misses::total          422                       # number of StoreCondReq MSHR misses
system.cpu1.dcache.StoreCondReq_mshr_miss_latency::.cpu1.data      3614500                       # number of StoreCondReq MSHR miss cycles
system.cpu1.dcache.StoreCondReq_mshr_miss_latency::total      3614500                       # number of StoreCondReq MSHR miss cycles
system.cpu1.dcache.StoreCondReq_mshr_miss_rate::.cpu1.data     0.293463                       # mshr miss rate for StoreCondReq accesses
system.cpu1.dcache.StoreCondReq_mshr_miss_rate::total     0.293463                       # mshr miss rate for StoreCondReq accesses
system.cpu1.dcache.StoreCondReq_avg_mshr_miss_latency::.cpu1.data  8565.165877                       # average StoreCondReq mshr miss latency
system.cpu1.dcache.StoreCondReq_avg_mshr_miss_latency::total  8565.165877                       # average StoreCondReq mshr miss latency
system.cpu1.dcache.SwapReq_hits::.cpu1.data          554                       # number of SwapReq hits
system.cpu1.dcache.SwapReq_hits::total            554                       # number of SwapReq hits
system.cpu1.dcache.SwapReq_misses::.cpu1.data          274                       # number of SwapReq misses
system.cpu1.dcache.SwapReq_misses::total          274                       # number of SwapReq misses
system.cpu1.dcache.SwapReq_miss_latency::.cpu1.data      1486500                       # number of SwapReq miss cycles
system.cpu1.dcache.SwapReq_miss_latency::total      1486500                       # number of SwapReq miss cycles
system.cpu1.dcache.SwapReq_accesses::.cpu1.data          828                       # number of SwapReq accesses(hits+misses)
system.cpu1.dcache.SwapReq_accesses::total          828                       # number of SwapReq accesses(hits+misses)
system.cpu1.dcache.SwapReq_miss_rate::.cpu1.data     0.330918                       # miss rate for SwapReq accesses
system.cpu1.dcache.SwapReq_miss_rate::total     0.330918                       # miss rate for SwapReq accesses
system.cpu1.dcache.SwapReq_avg_miss_latency::.cpu1.data  5425.182482                       # average SwapReq miss latency
system.cpu1.dcache.SwapReq_avg_miss_latency::total  5425.182482                       # average SwapReq miss latency
system.cpu1.dcache.SwapReq_mshr_misses::.cpu1.data          274                       # number of SwapReq MSHR misses
system.cpu1.dcache.SwapReq_mshr_misses::total          274                       # number of SwapReq MSHR misses
system.cpu1.dcache.SwapReq_mshr_miss_latency::.cpu1.data      1212500                       # number of SwapReq MSHR miss cycles
system.cpu1.dcache.SwapReq_mshr_miss_latency::total      1212500                       # number of SwapReq MSHR miss cycles
system.cpu1.dcache.SwapReq_mshr_miss_rate::.cpu1.data     0.330918                       # mshr miss rate for SwapReq accesses
system.cpu1.dcache.SwapReq_mshr_miss_rate::total     0.330918                       # mshr miss rate for SwapReq accesses
system.cpu1.dcache.SwapReq_avg_mshr_miss_latency::.cpu1.data  4425.182482                       # average SwapReq mshr miss latency
system.cpu1.dcache.SwapReq_avg_mshr_miss_latency::total  4425.182482                       # average SwapReq mshr miss latency
system.cpu1.dcache.tags.pwrStateResidencyTicks::UNDEFINED 1989896567500                       # Cumulative time (in ticks) in various power states
system.cpu1.dcache.tags.tagsinuse           31.819503                       # Cycle average of tags in use
system.cpu1.dcache.tags.total_refs          131698304                       # Total number of references to valid blocks.
system.cpu1.dcache.tags.sampled_refs         14477435                       # Sample count of references to valid blocks.
system.cpu1.dcache.tags.avg_refs             9.096798                       # Average number of references to valid blocks.
system.cpu1.dcache.tags.warmup_cycle                0                       # Cycle when the warmup percentage was hit.
system.cpu1.dcache.tags.occ_blocks::.cpu1.data    31.819503                       # Average occupied blocks per requestor
system.cpu1.dcache.tags.occ_percent::.cpu1.data     0.994359                       # Average percentage of cache occupancy
system.cpu1.dcache.tags.occ_percent::total     0.994359                       # Average percentage of cache occupancy
system.cpu1.dcache.tags.occ_task_id_blocks::1024           29                       # Occupied blocks per task id
system.cpu1.dcache.tags.age_task_id_blocks_1024::1           29                       # Occupied blocks per task id
system.cpu1.dcache.tags.occ_task_id_percent::1024     0.906250                       # Percentage of cache occupancy per task id
system.cpu1.dcache.tags.tag_accesses        338384142                       # Number of tag accesses
system.cpu1.dcache.tags.data_accesses       338384142                       # Number of data accesses
system.cpu_clk_domain.clock                       500                       # Clock period in ticks
system.tol2bus.pwrStateResidencyTicks::UNDEFINED 1989896567500                       # Cumulative time (in ticks) in various power states
system.tol2bus.trans_dist::ReadResp          67595154                       # Transaction distribution
system.tol2bus.trans_dist::WritebackDirty     10249192                       # Transaction distribution
system.tol2bus.trans_dist::WritebackClean     62821027                       # Transaction distribution
system.tol2bus.trans_dist::CleanEvict       231950898                       # Transaction distribution
system.tol2bus.trans_dist::HardPFReq        186294248                       # Transaction distribution
system.tol2bus.trans_dist::HardPFResp               2                       # Transaction distribution
system.tol2bus.trans_dist::UpgradeReq            2450                       # Transaction distribution
system.tol2bus.trans_dist::SCUpgradeReq           823                       # Transaction distribution
system.tol2bus.trans_dist::UpgradeResp           3273                       # Transaction distribution
system.tol2bus.trans_dist::ReadExReq           451760                       # Transaction distribution
system.tol2bus.trans_dist::ReadExResp          451760                       # Transaction distribution
system.tol2bus.trans_dist::ReadCleanReq         26478                       # Transaction distribution
system.tol2bus.trans_dist::ReadSharedReq     67568675                       # Transaction distribution
system.tol2bus.trans_dist::InvalidateReq            1                       # Transaction distribution
system.tol2bus.trans_dist::InvalidateResp            1                       # Transaction distribution
system.tol2bus.pkt_count_system.cpu0.icache.mem_side::system.l2.cpu_side        64097                       # Packet count per connected master and slave (bytes)
system.tol2bus.pkt_count_system.cpu0.dcache.mem_side::system.l2.cpu_side    160611718                       # Packet count per connected master and slave (bytes)
system.tol2bus.pkt_count_system.cpu1.icache.mem_side::system.l2.cpu_side        15339                       # Packet count per connected master and slave (bytes)
system.tol2bus.pkt_count_system.cpu1.dcache.mem_side::system.l2.cpu_side     43412272                       # Packet count per connected master and slave (bytes)
system.tol2bus.pkt_count::total             204103426                       # Packet count per connected master and slave (bytes)
system.tol2bus.pkt_size_system.cpu0.icache.mem_side::system.l2.cpu_side      2734848                       # Cumulative packet size per connected master and slave (bytes)
system.tol2bus.pkt_size_system.cpu0.dcache.mem_side::system.l2.cpu_side   6852212096                       # Cumulative packet size per connected master and slave (bytes)
system.tol2bus.pkt_size_system.cpu1.icache.mem_side::system.l2.cpu_side       654464                       # Cumulative packet size per connected master and slave (bytes)
system.tol2bus.pkt_size_system.cpu1.dcache.mem_side::system.l2.cpu_side   1851732672                       # Cumulative packet size per connected master and slave (bytes)
system.tol2bus.pkt_size::total             8707334080                       # Cumulative packet size per connected master and slave (bytes)
system.tol2bus.snoops                       423312318                       # Total snoops (count)
system.tol2bus.snoopTraffic                 324162688                       # Total snoop traffic (bytes)
system.tol2bus.snoop_fanout::samples        491348933                       # Request fanout histogram
system.tol2bus.snoop_fanout::mean            0.127316                       # Request fanout histogram
system.tol2bus.snoop_fanout::stdev           0.333911                       # Request fanout histogram
system.tol2bus.snoop_fanout::underflows             0      0.00%      0.00% # Request fanout histogram
system.tol2bus.snoop_fanout::0              428888109     87.29%     87.29% # Request fanout histogram
system.tol2bus.snoop_fanout::1               62364983     12.69%     99.98% # Request fanout histogram
system.tol2bus.snoop_fanout::2                  95841      0.02%    100.00% # Request fanout histogram
system.tol2bus.snoop_fanout::3                      0      0.00%    100.00% # Request fanout histogram
system.tol2bus.snoop_fanout::4                      0      0.00%    100.00% # Request fanout histogram
system.tol2bus.snoop_fanout::5                      0      0.00%    100.00% # Request fanout histogram
system.tol2bus.snoop_fanout::6                      0      0.00%    100.00% # Request fanout histogram
system.tol2bus.snoop_fanout::7                      0      0.00%    100.00% # Request fanout histogram
system.tol2bus.snoop_fanout::8                      0      0.00%    100.00% # Request fanout histogram
system.tol2bus.snoop_fanout::overflows              0      0.00%    100.00% # Request fanout histogram
system.tol2bus.snoop_fanout::min_value              0                       # Request fanout histogram
system.tol2bus.snoop_fanout::max_value              2                       # Request fanout histogram
system.tol2bus.snoop_fanout::total          491348933                       # Request fanout histogram
system.tol2bus.reqLayer0.occupancy       136146906064                       # Layer occupancy (ticks)
system.tol2bus.reqLayer0.utilization              6.8                       # Layer utilization (%)
system.tol2bus.respLayer1.occupancy       80324276555                       # Layer occupancy (ticks)
system.tol2bus.respLayer1.utilization             4.0                       # Layer utilization (%)
system.tol2bus.respLayer0.occupancy          32071455                       # Layer occupancy (ticks)
system.tol2bus.respLayer0.utilization             0.0                       # Layer utilization (%)
system.tol2bus.respLayer3.occupancy       21723203008                       # Layer occupancy (ticks)
system.tol2bus.respLayer3.utilization             1.1                       # Layer utilization (%)
system.tol2bus.respLayer2.occupancy           7676486                       # Layer occupancy (ticks)
system.tol2bus.respLayer2.utilization             0.0                       # Layer utilization (%)
system.tol2bus.snoopLayer0.occupancy             3002                       # Layer occupancy (ticks)
system.tol2bus.snoopLayer0.utilization            0.0                       # Layer utilization (%)

---------- End Simulation Statistics   ----------
