
---------- Begin Simulation Statistics ----------
final_tick                               239444494000                       # Number of ticks from beginning of simulation (restored from checkpoints and never reset)
host_inst_rate                                  72274                       # Simulator instruction rate (inst/s)
host_mem_usage                                 738308                       # Number of bytes of host memory used
host_op_rate                                    72540                       # Simulator op (including micro ops) rate (op/s)
host_seconds                                  3948.40                       # Real time elapsed on the host
host_tick_rate                               60643388                       # Simulator tick rate (ticks/s)
sim_freq                                 1000000000000                       # Frequency of simulated ticks
sim_insts                                   285367252                       # Number of instructions simulated
sim_ops                                     286416668                       # Number of ops (including micro ops) simulated
sim_seconds                                  0.239444                       # Number of seconds simulated
sim_ticks                                239444494000                       # Number of ticks simulated
system.cpu0.branchPred.BTBCorrect                   0                       # Number of correct BTB predictions (this stat may not work properly.
system.cpu0.branchPred.BTBHitPct            85.554097                       # BTB Hit Percentage
system.cpu0.branchPred.BTBHits               58687151                       # Number of BTB hits
system.cpu0.branchPred.BTBLookups            68596541                       # Number of BTB lookups
system.cpu0.branchPred.RASInCorrect                 0                       # Number of incorrect RAS predictions.
system.cpu0.branchPred.condIncorrect         13127780                       # Number of conditional branches incorrect
system.cpu0.branchPred.condPredicted         64294091                       # Number of conditional branches predicted
system.cpu0.branchPred.indirectHits           4726310                       # Number of indirect target hits.
system.cpu0.branchPred.indirectLookups        4736903                       # Number of indirect predictor lookups.
system.cpu0.branchPred.indirectMisses           10593                       # Number of indirect misses.
system.cpu0.branchPred.lookups               79283530                       # Number of BP lookups
system.cpu0.branchPred.usedRAS                      0                       # Number of times the RAS was used to get a target.
system.cpu0.branchPredindirectMispredicted         6711                       # Number of mispredicted indirect branches.
system.cpu0.commit.amos                        262444                       # Number of atomic instructions committed
system.cpu0.commit.branchMispredicts          7075565                       # The number of times a branch was mispredicted
system.cpu0.commit.branches                  37553696                       # Number of branches committed
system.cpu0.commit.bw_lim_events              1143334                       # number cycles where commit BW limit reached
system.cpu0.commit.commitNonSpecStalls         787788                       # The number of times commit has been forced to stall to communicate backwards
system.cpu0.commit.commitSquashedInsts      138817671                       # The number of squashed insts skipped by commit
system.cpu0.commit.committedInsts           243882427                       # Number of instructions committed
system.cpu0.commit.committedOps             244144839                       # Number of ops (including micro ops) committed
system.cpu0.commit.committed_per_cycle::samples    457449855                       # Number of insts commited each cycle
system.cpu0.commit.committed_per_cycle::mean     0.533708                       # Number of insts commited each cycle
system.cpu0.commit.committed_per_cycle::stdev     1.013712                       # Number of insts commited each cycle
system.cpu0.commit.committed_per_cycle::underflows            0      0.00%      0.00% # Number of insts commited each cycle
system.cpu0.commit.committed_per_cycle::0    318561465     69.64%     69.64% # Number of insts commited each cycle
system.cpu0.commit.committed_per_cycle::1     73153967     15.99%     85.63% # Number of insts commited each cycle
system.cpu0.commit.committed_per_cycle::2     41899676      9.16%     94.79% # Number of insts commited each cycle
system.cpu0.commit.committed_per_cycle::3     17044606      3.73%     98.52% # Number of insts commited each cycle
system.cpu0.commit.committed_per_cycle::4      2626041      0.57%     99.09% # Number of insts commited each cycle
system.cpu0.commit.committed_per_cycle::5      2310726      0.51%     99.59% # Number of insts commited each cycle
system.cpu0.commit.committed_per_cycle::6       117044      0.03%     99.62% # Number of insts commited each cycle
system.cpu0.commit.committed_per_cycle::7       592996      0.13%     99.75% # Number of insts commited each cycle
system.cpu0.commit.committed_per_cycle::8      1143334      0.25%    100.00% # Number of insts commited each cycle
system.cpu0.commit.committed_per_cycle::overflows            0      0.00%    100.00% # Number of insts commited each cycle
system.cpu0.commit.committed_per_cycle::min_value            0                       # Number of insts commited each cycle
system.cpu0.commit.committed_per_cycle::max_value            8                       # Number of insts commited each cycle
system.cpu0.commit.committed_per_cycle::total    457449855                       # Number of insts commited each cycle
system.cpu0.commit.fp_insts                  26214481                       # Number of committed floating point instructions.
system.cpu0.commit.function_calls             7440937                       # Number of function calls committed.
system.cpu0.commit.int_insts                232003000                       # Number of committed integer instructions.
system.cpu0.commit.loads                     23479177                       # Number of loads committed
system.cpu0.commit.membars                     524887                       # Number of memory barriers committed
system.cpu0.commit.op_class_0::No_OpClass       524896      0.21%      0.21% # Class of committed instruction
system.cpu0.commit.op_class_0::IntAlu       184478302     75.56%     75.78% # Class of committed instruction
system.cpu0.commit.op_class_0::IntMult          18424      0.01%     75.78% # Class of committed instruction
system.cpu0.commit.op_class_0::IntDiv           32816      0.01%     75.80% # Class of committed instruction
system.cpu0.commit.op_class_0::FloatAdd       7340032      3.01%     78.80% # Class of committed instruction
system.cpu0.commit.op_class_0::FloatCmp      11010054      4.51%     83.31% # Class of committed instruction
system.cpu0.commit.op_class_0::FloatCvt       3932176      1.61%     84.92% # Class of committed instruction
system.cpu0.commit.op_class_0::FloatMult      3670016      1.50%     86.43% # Class of committed instruction
system.cpu0.commit.op_class_0::FloatMultAcc            0      0.00%     86.43% # Class of committed instruction
system.cpu0.commit.op_class_0::FloatDiv             2      0.00%     86.43% # Class of committed instruction
system.cpu0.commit.op_class_0::FloatMisc            6      0.00%     86.43% # Class of committed instruction
system.cpu0.commit.op_class_0::FloatSqrt            0      0.00%     86.43% # Class of committed instruction
system.cpu0.commit.op_class_0::SimdAdd              0      0.00%     86.43% # Class of committed instruction
system.cpu0.commit.op_class_0::SimdAddAcc            0      0.00%     86.43% # Class of committed instruction
system.cpu0.commit.op_class_0::SimdAlu              0      0.00%     86.43% # Class of committed instruction
system.cpu0.commit.op_class_0::SimdCmp              0      0.00%     86.43% # Class of committed instruction
system.cpu0.commit.op_class_0::SimdCvt              0      0.00%     86.43% # Class of committed instruction
system.cpu0.commit.op_class_0::SimdMisc             0      0.00%     86.43% # Class of committed instruction
system.cpu0.commit.op_class_0::SimdMult             0      0.00%     86.43% # Class of committed instruction
system.cpu0.commit.op_class_0::SimdMultAcc            0      0.00%     86.43% # Class of committed instruction
system.cpu0.commit.op_class_0::SimdShift            0      0.00%     86.43% # Class of committed instruction
system.cpu0.commit.op_class_0::SimdShiftAcc            0      0.00%     86.43% # Class of committed instruction
system.cpu0.commit.op_class_0::SimdDiv              0      0.00%     86.43% # Class of committed instruction
system.cpu0.commit.op_class_0::SimdSqrt             0      0.00%     86.43% # Class of committed instruction
system.cpu0.commit.op_class_0::SimdFloatAdd            0      0.00%     86.43% # Class of committed instruction
system.cpu0.commit.op_class_0::SimdFloatAlu            0      0.00%     86.43% # Class of committed instruction
system.cpu0.commit.op_class_0::SimdFloatCmp            0      0.00%     86.43% # Class of committed instruction
system.cpu0.commit.op_class_0::SimdFloatCvt            0      0.00%     86.43% # Class of committed instruction
system.cpu0.commit.op_class_0::SimdFloatDiv            0      0.00%     86.43% # Class of committed instruction
system.cpu0.commit.op_class_0::SimdFloatMisc            0      0.00%     86.43% # Class of committed instruction
system.cpu0.commit.op_class_0::SimdFloatMult            0      0.00%     86.43% # Class of committed instruction
system.cpu0.commit.op_class_0::SimdFloatMultAcc            0      0.00%     86.43% # Class of committed instruction
system.cpu0.commit.op_class_0::SimdFloatSqrt            0      0.00%     86.43% # Class of committed instruction
system.cpu0.commit.op_class_0::SimdReduceAdd            0      0.00%     86.43% # Class of committed instruction
system.cpu0.commit.op_class_0::SimdReduceAlu            0      0.00%     86.43% # Class of committed instruction
system.cpu0.commit.op_class_0::SimdReduceCmp            0      0.00%     86.43% # Class of committed instruction
system.cpu0.commit.op_class_0::SimdFloatReduceAdd            0      0.00%     86.43% # Class of committed instruction
system.cpu0.commit.op_class_0::SimdFloatReduceCmp            0      0.00%     86.43% # Class of committed instruction
system.cpu0.commit.op_class_0::SimdAes              0      0.00%     86.43% # Class of committed instruction
system.cpu0.commit.op_class_0::SimdAesMix            0      0.00%     86.43% # Class of committed instruction
system.cpu0.commit.op_class_0::SimdSha1Hash            0      0.00%     86.43% # Class of committed instruction
system.cpu0.commit.op_class_0::SimdSha1Hash2            0      0.00%     86.43% # Class of committed instruction
system.cpu0.commit.op_class_0::SimdSha256Hash            0      0.00%     86.43% # Class of committed instruction
system.cpu0.commit.op_class_0::SimdSha256Hash2            0      0.00%     86.43% # Class of committed instruction
system.cpu0.commit.op_class_0::SimdShaSigma2            0      0.00%     86.43% # Class of committed instruction
system.cpu0.commit.op_class_0::SimdShaSigma3            0      0.00%     86.43% # Class of committed instruction
system.cpu0.commit.op_class_0::SimdPredAlu            0      0.00%     86.43% # Class of committed instruction
system.cpu0.commit.op_class_0::MemRead       23479455      9.62%     96.04% # Class of committed instruction
system.cpu0.commit.op_class_0::MemWrite       9396465      3.85%     99.89% # Class of committed instruction
system.cpu0.commit.op_class_0::FloatMemRead       262166      0.11%    100.00% # Class of committed instruction
system.cpu0.commit.op_class_0::FloatMemWrite           29      0.00%    100.00% # Class of committed instruction
system.cpu0.commit.op_class_0::IprAccess            0      0.00%    100.00% # Class of committed instruction
system.cpu0.commit.op_class_0::InstPrefetch            0      0.00%    100.00% # Class of committed instruction
system.cpu0.commit.op_class_0::total        244144839                       # Class of committed instruction
system.cpu0.commit.refs                      33138115                       # Number of memory references committed
system.cpu0.commit.swp_count                        0                       # Number of s/w prefetches committed
system.cpu0.commit.vec_insts                        0                       # Number of committed Vector instructions.
system.cpu0.committedInsts                  243882427                       # Number of Instructions Simulated
system.cpu0.committedOps                    244144839                       # Number of Ops (including micro ops) Simulated
system.cpu0.cpi                              1.963347                       # CPI: Cycles Per Instruction
system.cpu0.cpi_total                        1.963347                       # CPI: Total CPI of All Threads
system.cpu0.decode.BlockedCycles            165800070                       # Number of cycles decode is blocked
system.cpu0.decode.BranchMispred              6052992                       # Number of times decode detected a branch misprediction
system.cpu0.decode.BranchResolved            51183358                       # Number of times decode resolved a branch
system.cpu0.decode.DecodedInsts             414030571                       # Number of instructions handled by decode
system.cpu0.decode.IdleCycles                76016343                       # Number of cycles decode is idle
system.cpu0.decode.RunCycles                222928003                       # Number of cycles decode is running
system.cpu0.decode.SquashCycles               7076294                       # Number of cycles decode is squashing
system.cpu0.decode.SquashedInsts             12306665                       # Number of squashed instructions handled by decode
system.cpu0.decode.UnblockCycles              5736963                       # Number of cycles decode is unblocking
system.cpu0.dtb.accesses                            0                       # DTB accesses
system.cpu0.dtb.hits                                0                       # DTB hits
system.cpu0.dtb.misses                              0                       # DTB misses
system.cpu0.dtb.read_accesses                       0                       # DTB read accesses
system.cpu0.dtb.read_hits                           0                       # DTB read hits
system.cpu0.dtb.read_misses                         0                       # DTB read misses
system.cpu0.dtb.write_accesses                      0                       # DTB write accesses
system.cpu0.dtb.write_hits                          0                       # DTB write hits
system.cpu0.dtb.write_misses                        0                       # DTB write misses
system.cpu0.fetch.Branches                   79283530                       # Number of branches that fetch encountered
system.cpu0.fetch.CacheLines                 57105959                       # Number of cache lines fetched
system.cpu0.fetch.Cycles                    398879899                       # Number of cycles fetch has run and was not squashing or blocked
system.cpu0.fetch.IcacheSquashes               475024                       # Number of outstanding Icache misses that were squashed
system.cpu0.fetch.IcacheWaitRetryStallCycles          191                       # Number of stall cycles due to full MSHR
system.cpu0.fetch.Insts                     470092993                       # Number of instructions fetch has processed
system.cpu0.fetch.MiscStallCycles                  77                       # Number of cycles fetch has spent waiting on interrupts, or bad addresses, or out of MSHRs
system.cpu0.fetch.PendingTrapStallCycles           20                       # Number of stall cycles due to pending traps
system.cpu0.fetch.SquashCycles               26257024                       # Number of cycles fetch has spent squashing
system.cpu0.fetch.branchRate                 0.165579                       # Number of branch fetches per cycle
system.cpu0.fetch.icacheStallCycles          65548974                       # Number of cycles fetch is stalled on an Icache miss
system.cpu0.fetch.predictedBranches          63413461                       # Number of branches that fetch has predicted taken
system.cpu0.fetch.rate                       0.981762                       # Number of inst fetches per cycle
system.cpu0.fetch.rateDist::samples         477557673                       # Number of instructions fetched each cycle (Total)
system.cpu0.fetch.rateDist::mean             0.984919                       # Number of instructions fetched each cycle (Total)
system.cpu0.fetch.rateDist::stdev            1.282875                       # Number of instructions fetched each cycle (Total)
system.cpu0.fetch.rateDist::underflows              0      0.00%      0.00% # Number of instructions fetched each cycle (Total)
system.cpu0.fetch.rateDist::0               214748896     44.97%     44.97% # Number of instructions fetched each cycle (Total)
system.cpu0.fetch.rateDist::1               153996566     32.25%     77.21% # Number of instructions fetched each cycle (Total)
system.cpu0.fetch.rateDist::2                59953509     12.55%     89.77% # Number of instructions fetched each cycle (Total)
system.cpu0.fetch.rateDist::3                23601472      4.94%     94.71% # Number of instructions fetched each cycle (Total)
system.cpu0.fetch.rateDist::4                 9263712      1.94%     96.65% # Number of instructions fetched each cycle (Total)
system.cpu0.fetch.rateDist::5                 7386756      1.55%     98.20% # Number of instructions fetched each cycle (Total)
system.cpu0.fetch.rateDist::6                 8596703      1.80%    100.00% # Number of instructions fetched each cycle (Total)
system.cpu0.fetch.rateDist::7                    1706      0.00%    100.00% # Number of instructions fetched each cycle (Total)
system.cpu0.fetch.rateDist::8                    8353      0.00%    100.00% # Number of instructions fetched each cycle (Total)
system.cpu0.fetch.rateDist::overflows               0      0.00%    100.00% # Number of instructions fetched each cycle (Total)
system.cpu0.fetch.rateDist::min_value               0                       # Number of instructions fetched each cycle (Total)
system.cpu0.fetch.rateDist::max_value               8                       # Number of instructions fetched each cycle (Total)
system.cpu0.fetch.rateDist::total           477557673                       # Number of instructions fetched each cycle (Total)
system.cpu0.fp_regfile_reads                 58769485                       # number of floating regfile reads
system.cpu0.fp_regfile_writes                18382900                       # number of floating regfile writes
system.cpu0.idleCycles                        1268063                       # Total number of cycles that the CPU has spent unscheduled due to idling
system.cpu0.iew.branchMispredicts             7809596                       # Number of branch mispredicts detected at execute
system.cpu0.iew.exec_branches                55506946                       # Number of branches executed
system.cpu0.iew.exec_nop                            0                       # number of nop insts executed
system.cpu0.iew.exec_rate                    0.733443                       # Inst execution rate
system.cpu0.iew.exec_refs                    52474214                       # number of memory reference insts executed
system.cpu0.iew.exec_stores                  13134347                       # Number of stores executed
system.cpu0.iew.exec_swp                            0                       # number of swp insts executed
system.cpu0.iew.iewBlockCycles              151571009                       # Number of cycles IEW is blocking
system.cpu0.iew.iewDispLoadInsts             40760744                       # Number of dispatched load instructions
system.cpu0.iew.iewDispNonSpecInsts            263208                       # Number of dispatched non-speculative instructions
system.cpu0.iew.iewDispSquashedInsts          1866005                       # Number of squashed instructions skipped by dispatch
system.cpu0.iew.iewDispStoreInsts            16310787                       # Number of dispatched store instructions
system.cpu0.iew.iewDispatchedInsts          382960227                       # Number of instructions dispatched to IQ
system.cpu0.iew.iewExecLoadInsts             39339867                       # Number of load instructions executed
system.cpu0.iew.iewExecSquashedInsts          6844083                       # Number of squashed instructions skipped in execute
system.cpu0.iew.iewExecutedInsts            351191200                       # Number of executed instructions
system.cpu0.iew.iewIQFullEvents                792844                       # Number of times the IQ has become full, causing a stall
system.cpu0.iew.iewIdleCycles                       0                       # Number of cycles IEW is idle
system.cpu0.iew.iewLSQFullEvents               485146                       # Number of times the LSQ has become full, causing a stall
system.cpu0.iew.iewSquashCycles               7076294                       # Number of cycles IEW is squashing
system.cpu0.iew.iewUnblockCycles              2407119                       # Number of cycles IEW is unblocking
system.cpu0.iew.lsq.thread0.blockedLoads            0                       # Number of blocked loads due to partial load-store forwarding
system.cpu0.iew.lsq.thread0.cacheBlocked        24876                       # Number of times an access to memory failed due to the cache being blocked
system.cpu0.iew.lsq.thread0.forwLoads         1457031                       # Number of loads that had data forwarded from stores
system.cpu0.iew.lsq.thread0.ignoredResponses         7723                       # Number of memory responses ignored because the instruction is squashed
system.cpu0.iew.lsq.thread0.invAddrLoads            0                       # Number of loads ignored due to an invalid address
system.cpu0.iew.lsq.thread0.invAddrSwpfs            0                       # Number of software prefetches ignored due to an invalid address
system.cpu0.iew.lsq.thread0.memOrderViolation         1207                       # Number of memory ordering violations
system.cpu0.iew.lsq.thread0.rescheduledLoads          284                       # Number of loads that were rescheduled
system.cpu0.iew.lsq.thread0.squashedLoads     17281567                       # Number of loads squashed
system.cpu0.iew.lsq.thread0.squashedStores      6651849                       # Number of stores squashed
system.cpu0.iew.memOrderViolationEvents          1207                       # Number of memory order violations
system.cpu0.iew.predictedNotTakenIncorrect       318189                       # Number of branches that were predicted not taken incorrectly
system.cpu0.iew.predictedTakenIncorrect       7491407                       # Number of branches that were predicted taken incorrectly
system.cpu0.iew.wb_consumers                269717622                       # num instructions consuming a value
system.cpu0.iew.wb_count                    348813057                       # cumulative count of insts written-back
system.cpu0.iew.wb_fanout                    0.819517                       # average fanout of values written-back
system.cpu0.iew.wb_producers                221038116                       # num instructions producing a value
system.cpu0.iew.wb_rate                      0.728476                       # insts written-back per cycle
system.cpu0.iew.wb_sent                     349267755                       # cumulative count of insts sent to commit
system.cpu0.int_regfile_reads               402054722                       # number of integer regfile reads
system.cpu0.int_regfile_writes              267350759                       # number of integer regfile writes
system.cpu0.ipc                              0.509334                       # IPC: Instructions Per Cycle
system.cpu0.ipc_total                        0.509334                       # IPC: Total IPC of All Threads
system.cpu0.iq.FU_type_0::No_OpClass           525039      0.15%      0.15% # Type of FU issued
system.cpu0.iq.FU_type_0::IntAlu            270094709     75.44%     75.58% # Type of FU issued
system.cpu0.iq.FU_type_0::IntMult               18561      0.01%     75.59% # Type of FU issued
system.cpu0.iq.FU_type_0::IntDiv                33046      0.01%     75.60% # Type of FU issued
system.cpu0.iq.FU_type_0::FloatAdd            8870823      2.48%     78.08% # Type of FU issued
system.cpu0.iq.FU_type_0::FloatCmp           16086035      4.49%     82.57% # Type of FU issued
system.cpu0.iq.FU_type_0::FloatCvt            4812216      1.34%     83.91% # Type of FU issued
system.cpu0.iq.FU_type_0::FloatMult           4433054      1.24%     85.15% # Type of FU issued
system.cpu0.iq.FU_type_0::FloatMultAcc              0      0.00%     85.15% # Type of FU issued
system.cpu0.iq.FU_type_0::FloatDiv                  2      0.00%     85.15% # Type of FU issued
system.cpu0.iq.FU_type_0::FloatMisc                 6      0.00%     85.15% # Type of FU issued
system.cpu0.iq.FU_type_0::FloatSqrt                 0      0.00%     85.15% # Type of FU issued
system.cpu0.iq.FU_type_0::SimdAdd                   0      0.00%     85.15% # Type of FU issued
system.cpu0.iq.FU_type_0::SimdAddAcc                0      0.00%     85.15% # Type of FU issued
system.cpu0.iq.FU_type_0::SimdAlu                   0      0.00%     85.15% # Type of FU issued
system.cpu0.iq.FU_type_0::SimdCmp                   0      0.00%     85.15% # Type of FU issued
system.cpu0.iq.FU_type_0::SimdCvt                   0      0.00%     85.15% # Type of FU issued
system.cpu0.iq.FU_type_0::SimdMisc                  0      0.00%     85.15% # Type of FU issued
system.cpu0.iq.FU_type_0::SimdMult                  0      0.00%     85.15% # Type of FU issued
system.cpu0.iq.FU_type_0::SimdMultAcc               0      0.00%     85.15% # Type of FU issued
system.cpu0.iq.FU_type_0::SimdShift                 0      0.00%     85.15% # Type of FU issued
system.cpu0.iq.FU_type_0::SimdShiftAcc              0      0.00%     85.15% # Type of FU issued
system.cpu0.iq.FU_type_0::SimdDiv                   0      0.00%     85.15% # Type of FU issued
system.cpu0.iq.FU_type_0::SimdSqrt                  0      0.00%     85.15% # Type of FU issued
system.cpu0.iq.FU_type_0::SimdFloatAdd              0      0.00%     85.15% # Type of FU issued
system.cpu0.iq.FU_type_0::SimdFloatAlu              0      0.00%     85.15% # Type of FU issued
system.cpu0.iq.FU_type_0::SimdFloatCmp              0      0.00%     85.15% # Type of FU issued
system.cpu0.iq.FU_type_0::SimdFloatCvt              0      0.00%     85.15% # Type of FU issued
system.cpu0.iq.FU_type_0::SimdFloatDiv              0      0.00%     85.15% # Type of FU issued
system.cpu0.iq.FU_type_0::SimdFloatMisc             0      0.00%     85.15% # Type of FU issued
system.cpu0.iq.FU_type_0::SimdFloatMult             0      0.00%     85.15% # Type of FU issued
system.cpu0.iq.FU_type_0::SimdFloatMultAcc            0      0.00%     85.15% # Type of FU issued
system.cpu0.iq.FU_type_0::SimdFloatSqrt             0      0.00%     85.15% # Type of FU issued
system.cpu0.iq.FU_type_0::SimdReduceAdd             0      0.00%     85.15% # Type of FU issued
system.cpu0.iq.FU_type_0::SimdReduceAlu             0      0.00%     85.15% # Type of FU issued
system.cpu0.iq.FU_type_0::SimdReduceCmp             0      0.00%     85.15% # Type of FU issued
system.cpu0.iq.FU_type_0::SimdFloatReduceAdd            0      0.00%     85.15% # Type of FU issued
system.cpu0.iq.FU_type_0::SimdFloatReduceCmp            0      0.00%     85.15% # Type of FU issued
system.cpu0.iq.FU_type_0::SimdAes                   0      0.00%     85.15% # Type of FU issued
system.cpu0.iq.FU_type_0::SimdAesMix                0      0.00%     85.15% # Type of FU issued
system.cpu0.iq.FU_type_0::SimdSha1Hash              0      0.00%     85.15% # Type of FU issued
system.cpu0.iq.FU_type_0::SimdSha1Hash2             0      0.00%     85.15% # Type of FU issued
system.cpu0.iq.FU_type_0::SimdSha256Hash            0      0.00%     85.15% # Type of FU issued
system.cpu0.iq.FU_type_0::SimdSha256Hash2            0      0.00%     85.15% # Type of FU issued
system.cpu0.iq.FU_type_0::SimdShaSigma2             0      0.00%     85.15% # Type of FU issued
system.cpu0.iq.FU_type_0::SimdShaSigma3             0      0.00%     85.15% # Type of FU issued
system.cpu0.iq.FU_type_0::SimdPredAlu               0      0.00%     85.15% # Type of FU issued
system.cpu0.iq.FU_type_0::MemRead            39702930     11.09%     96.24% # Type of FU issued
system.cpu0.iq.FU_type_0::MemWrite           13135006      3.67%     99.91% # Type of FU issued
system.cpu0.iq.FU_type_0::FloatMemRead         323827      0.09%    100.00% # Type of FU issued
system.cpu0.iq.FU_type_0::FloatMemWrite            30      0.00%    100.00% # Type of FU issued
system.cpu0.iq.FU_type_0::IprAccess                 0      0.00%    100.00% # Type of FU issued
system.cpu0.iq.FU_type_0::InstPrefetch              0      0.00%    100.00% # Type of FU issued
system.cpu0.iq.FU_type_0::total             358035284                       # Type of FU issued
system.cpu0.iq.fp_alu_accesses               34526231                       # Number of floating point alu accesses
system.cpu0.iq.fp_inst_queue_reads           69052224                       # Number of floating instruction queue reads
system.cpu0.iq.fp_inst_queue_wakeup_accesses     34468864                       # Number of floating instruction queue wakeup accesses
system.cpu0.iq.fp_inst_queue_writes          44436481                       # Number of floating instruction queue writes
system.cpu0.iq.fu_busy_cnt                    2205290                       # FU busy when requested
system.cpu0.iq.fu_busy_rate                  0.006159                       # FU busy rate (busy events/executed inst)
system.cpu0.iq.fu_full::No_OpClass                  0      0.00%      0.00% # attempts to use FU when none available
system.cpu0.iq.fu_full::IntAlu                2084665     94.53%     94.53% # attempts to use FU when none available
system.cpu0.iq.fu_full::IntMult                  8427      0.38%     94.91% # attempts to use FU when none available
system.cpu0.iq.fu_full::IntDiv                  15137      0.69%     95.60% # attempts to use FU when none available
system.cpu0.iq.fu_full::FloatAdd                   10      0.00%     95.60% # attempts to use FU when none available
system.cpu0.iq.fu_full::FloatCmp                  180      0.01%     95.61% # attempts to use FU when none available
system.cpu0.iq.fu_full::FloatCvt                   42      0.00%     95.61% # attempts to use FU when none available
system.cpu0.iq.fu_full::FloatMult                   0      0.00%     95.61% # attempts to use FU when none available
system.cpu0.iq.fu_full::FloatMultAcc                0      0.00%     95.61% # attempts to use FU when none available
system.cpu0.iq.fu_full::FloatDiv                    0      0.00%     95.61% # attempts to use FU when none available
system.cpu0.iq.fu_full::FloatMisc                   0      0.00%     95.61% # attempts to use FU when none available
system.cpu0.iq.fu_full::FloatSqrt                   0      0.00%     95.61% # attempts to use FU when none available
system.cpu0.iq.fu_full::SimdAdd                     0      0.00%     95.61% # attempts to use FU when none available
system.cpu0.iq.fu_full::SimdAddAcc                  0      0.00%     95.61% # attempts to use FU when none available
system.cpu0.iq.fu_full::SimdAlu                     0      0.00%     95.61% # attempts to use FU when none available
system.cpu0.iq.fu_full::SimdCmp                     0      0.00%     95.61% # attempts to use FU when none available
system.cpu0.iq.fu_full::SimdCvt                     0      0.00%     95.61% # attempts to use FU when none available
system.cpu0.iq.fu_full::SimdMisc                    0      0.00%     95.61% # attempts to use FU when none available
system.cpu0.iq.fu_full::SimdMult                    0      0.00%     95.61% # attempts to use FU when none available
system.cpu0.iq.fu_full::SimdMultAcc                 0      0.00%     95.61% # attempts to use FU when none available
system.cpu0.iq.fu_full::SimdShift                   0      0.00%     95.61% # attempts to use FU when none available
system.cpu0.iq.fu_full::SimdShiftAcc                0      0.00%     95.61% # attempts to use FU when none available
system.cpu0.iq.fu_full::SimdDiv                     0      0.00%     95.61% # attempts to use FU when none available
system.cpu0.iq.fu_full::SimdSqrt                    0      0.00%     95.61% # attempts to use FU when none available
system.cpu0.iq.fu_full::SimdFloatAdd                0      0.00%     95.61% # attempts to use FU when none available
system.cpu0.iq.fu_full::SimdFloatAlu                0      0.00%     95.61% # attempts to use FU when none available
system.cpu0.iq.fu_full::SimdFloatCmp                0      0.00%     95.61% # attempts to use FU when none available
system.cpu0.iq.fu_full::SimdFloatCvt                0      0.00%     95.61% # attempts to use FU when none available
system.cpu0.iq.fu_full::SimdFloatDiv                0      0.00%     95.61% # attempts to use FU when none available
system.cpu0.iq.fu_full::SimdFloatMisc               0      0.00%     95.61% # attempts to use FU when none available
system.cpu0.iq.fu_full::SimdFloatMult               0      0.00%     95.61% # attempts to use FU when none available
system.cpu0.iq.fu_full::SimdFloatMultAcc            0      0.00%     95.61% # attempts to use FU when none available
system.cpu0.iq.fu_full::SimdFloatSqrt               0      0.00%     95.61% # attempts to use FU when none available
system.cpu0.iq.fu_full::SimdReduceAdd               0      0.00%     95.61% # attempts to use FU when none available
system.cpu0.iq.fu_full::SimdReduceAlu               0      0.00%     95.61% # attempts to use FU when none available
system.cpu0.iq.fu_full::SimdReduceCmp               0      0.00%     95.61% # attempts to use FU when none available
system.cpu0.iq.fu_full::SimdFloatReduceAdd            0      0.00%     95.61% # attempts to use FU when none available
system.cpu0.iq.fu_full::SimdFloatReduceCmp            0      0.00%     95.61% # attempts to use FU when none available
system.cpu0.iq.fu_full::SimdAes                     0      0.00%     95.61% # attempts to use FU when none available
system.cpu0.iq.fu_full::SimdAesMix                  0      0.00%     95.61% # attempts to use FU when none available
system.cpu0.iq.fu_full::SimdSha1Hash                0      0.00%     95.61% # attempts to use FU when none available
system.cpu0.iq.fu_full::SimdSha1Hash2               0      0.00%     95.61% # attempts to use FU when none available
system.cpu0.iq.fu_full::SimdSha256Hash              0      0.00%     95.61% # attempts to use FU when none available
system.cpu0.iq.fu_full::SimdSha256Hash2             0      0.00%     95.61% # attempts to use FU when none available
system.cpu0.iq.fu_full::SimdShaSigma2               0      0.00%     95.61% # attempts to use FU when none available
system.cpu0.iq.fu_full::SimdShaSigma3               0      0.00%     95.61% # attempts to use FU when none available
system.cpu0.iq.fu_full::SimdPredAlu                 0      0.00%     95.61% # attempts to use FU when none available
system.cpu0.iq.fu_full::MemRead                 90994      4.13%     99.74% # attempts to use FU when none available
system.cpu0.iq.fu_full::MemWrite                 5829      0.26%    100.00% # attempts to use FU when none available
system.cpu0.iq.fu_full::FloatMemRead                2      0.00%    100.00% # attempts to use FU when none available
system.cpu0.iq.fu_full::FloatMemWrite               4      0.00%    100.00% # attempts to use FU when none available
system.cpu0.iq.fu_full::IprAccess                   0      0.00%    100.00% # attempts to use FU when none available
system.cpu0.iq.fu_full::InstPrefetch                0      0.00%    100.00% # attempts to use FU when none available
system.cpu0.iq.int_alu_accesses             325189304                       # Number of integer alu accesses
system.cpu0.iq.int_inst_queue_reads        1128454724                       # Number of integer instruction queue reads
system.cpu0.iq.int_inst_queue_wakeup_accesses    314344193                       # Number of integer instruction queue wakeup accesses
system.cpu0.iq.int_inst_queue_writes        477339840                       # Number of integer instruction queue writes
system.cpu0.iq.iqInstsAdded                 382172002                       # Number of instructions added to the IQ (excludes non-spec)
system.cpu0.iq.iqInstsIssued                358035284                       # Number of instructions issued
system.cpu0.iq.iqNonSpecInstsAdded             788225                       # Number of non-speculative instructions added to the IQ
system.cpu0.iq.iqSquashedInstsExamined      138815384                       # Number of squashed instructions iterated over during squash; mainly for profiling
system.cpu0.iq.iqSquashedInstsIssued          1673418                       # Number of squashed instructions issued
system.cpu0.iq.iqSquashedNonSpecRemoved           437                       # Number of squashed non-spec instructions that were removed
system.cpu0.iq.iqSquashedOperandsExamined     41341623                       # Number of squashed operands that are examined and possibly removed from graph
system.cpu0.iq.issued_per_cycle::samples    477557673                       # Number of insts issued each cycle
system.cpu0.iq.issued_per_cycle::mean        0.749722                       # Number of insts issued each cycle
system.cpu0.iq.issued_per_cycle::stdev       1.155510                       # Number of insts issued each cycle
system.cpu0.iq.issued_per_cycle::underflows            0      0.00%      0.00% # Number of insts issued each cycle
system.cpu0.iq.issued_per_cycle::0          271435847     56.84%     56.84% # Number of insts issued each cycle
system.cpu0.iq.issued_per_cycle::1          119780527     25.08%     81.92% # Number of insts issued each cycle
system.cpu0.iq.issued_per_cycle::2           54015807     11.31%     93.23% # Number of insts issued each cycle
system.cpu0.iq.issued_per_cycle::3           14097325      2.95%     96.18% # Number of insts issued each cycle
system.cpu0.iq.issued_per_cycle::4            9086438      1.90%     98.09% # Number of insts issued each cycle
system.cpu0.iq.issued_per_cycle::5            5246863      1.10%     99.18% # Number of insts issued each cycle
system.cpu0.iq.issued_per_cycle::6            2317824      0.49%     99.67% # Number of insts issued each cycle
system.cpu0.iq.issued_per_cycle::7            1172179      0.25%     99.92% # Number of insts issued each cycle
system.cpu0.iq.issued_per_cycle::8             404863      0.08%    100.00% # Number of insts issued each cycle
system.cpu0.iq.issued_per_cycle::overflows            0      0.00%    100.00% # Number of insts issued each cycle
system.cpu0.iq.issued_per_cycle::min_value            0                       # Number of insts issued each cycle
system.cpu0.iq.issued_per_cycle::max_value            8                       # Number of insts issued each cycle
system.cpu0.iq.issued_per_cycle::total      477557673                       # Number of insts issued each cycle
system.cpu0.iq.rate                          0.747736                       # Inst issue rate
system.cpu0.iq.vec_alu_accesses                     0                       # Number of vector alu accesses
system.cpu0.iq.vec_inst_queue_reads                 0                       # Number of vector instruction queue reads
system.cpu0.iq.vec_inst_queue_wakeup_accesses            0                       # Number of vector instruction queue wakeup accesses
system.cpu0.iq.vec_inst_queue_writes                0                       # Number of vector instruction queue writes
system.cpu0.itb.accesses                            0                       # DTB accesses
system.cpu0.itb.hits                                0                       # DTB hits
system.cpu0.itb.misses                              0                       # DTB misses
system.cpu0.itb.read_accesses                       0                       # DTB read accesses
system.cpu0.itb.read_hits                           0                       # DTB read hits
system.cpu0.itb.read_misses                         0                       # DTB read misses
system.cpu0.itb.write_accesses                      0                       # DTB write accesses
system.cpu0.itb.write_hits                          0                       # DTB write hits
system.cpu0.itb.write_misses                        0                       # DTB write misses
system.cpu0.memDep0.conflictingLoads          2312007                       # Number of conflicting loads.
system.cpu0.memDep0.conflictingStores          786466                       # Number of conflicting stores.
system.cpu0.memDep0.insertedLoads            40760744                       # Number of loads inserted to the mem dependence unit.
system.cpu0.memDep0.insertedStores           16310787                       # Number of stores inserted to the mem dependence unit.
system.cpu0.misc_regfile_reads               51883941                       # number of misc regfile reads
system.cpu0.misc_regfile_writes              25952286                       # number of misc regfile writes
system.cpu0.numCycles                       478825736                       # number of cpu cycles simulated
system.cpu0.numWorkItemsCompleted                   0                       # number of work items this cpu completed
system.cpu0.numWorkItemsStarted                     0                       # number of work items this cpu started
system.cpu0.quiesceCycles                       63254                       # Total number of cycles that CPU has spent quiesced or waiting for an interrupt
system.cpu0.rename.BlockCycles              159205061                       # Number of cycles rename is blocking
system.cpu0.rename.CommittedMaps            200390107                       # Number of HB maps that are committed
system.cpu0.rename.IQFullEvents               4845465                       # Number of times rename has blocked due to IQ full
system.cpu0.rename.IdleCycles                89249595                       # Number of cycles rename is idle
system.cpu0.rename.LQFullEvents                841230                       # Number of times rename has blocked due to LQ full
system.cpu0.rename.ROBFullEvents                41069                       # Number of times rename has blocked due to ROB full
system.cpu0.rename.RenameLookups            527687546                       # Number of register rename lookups that rename has made
system.cpu0.rename.RenamedInsts             401009670                       # Number of instructions processed by rename
system.cpu0.rename.RenamedOperands          325120377                       # Number of destination operands rename has renamed
system.cpu0.rename.RunCycles                214386724                       # Number of cycles rename is running
system.cpu0.rename.SQFullEvents                488053                       # Number of times rename has blocked due to SQ full
system.cpu0.rename.SquashCycles               7076294                       # Number of cycles rename is squashing
system.cpu0.rename.UnblockCycles              7619707                       # Number of cycles rename is unblocking
system.cpu0.rename.UndoneMaps               124730265                       # Number of HB maps that are undone due to squashing
system.cpu0.rename.fp_rename_lookups         60484215                       # Number of floating rename lookups
system.cpu0.rename.int_rename_lookups       467203331                       # Number of integer rename lookups
system.cpu0.rename.serializeStallCycles         20292                       # count of cycles rename stalled for serializing inst
system.cpu0.rename.serializingInsts               542                       # count of serializing insts renamed
system.cpu0.rename.skidInsts                 11060478                       # count of insts added to the skid buffer
system.cpu0.rename.tempSerializingInsts           541                       # count of temporary serializing insts renamed
system.cpu0.rob.rob_reads                   839267237                       # The number of ROB reads
system.cpu0.rob.rob_writes                  786034124                       # The number of ROB writes
system.cpu0.timesIdled                          16142                       # Number of times that the entire CPU went into an idle state and unscheduled itself
system.cpu0.workload.numSyscalls                  140                       # Number of system calls
system.cpu1.branchPred.BTBCorrect                   0                       # Number of correct BTB predictions (this stat may not work properly.
system.cpu1.branchPred.BTBHitPct            96.430685                       # BTB Hit Percentage
system.cpu1.branchPred.BTBHits                3717454                       # Number of BTB hits
system.cpu1.branchPred.BTBLookups             3855053                       # Number of BTB lookups
system.cpu1.branchPred.RASInCorrect                 0                       # Number of incorrect RAS predictions.
system.cpu1.branchPred.condIncorrect           646084                       # Number of conditional branches incorrect
system.cpu1.branchPred.condPredicted          4920499                       # Number of conditional branches predicted
system.cpu1.branchPred.indirectHits             43861                       # Number of indirect target hits.
system.cpu1.branchPred.indirectLookups          51708                       # Number of indirect predictor lookups.
system.cpu1.branchPred.indirectMisses            7847                       # Number of indirect misses.
system.cpu1.branchPred.lookups                5982129                       # Number of BP lookups
system.cpu1.branchPred.usedRAS                      0                       # Number of times the RAS was used to get a target.
system.cpu1.branchPredindirectMispredicted         4761                       # Number of mispredicted indirect branches.
system.cpu1.commit.amos                        262264                       # Number of atomic instructions committed
system.cpu1.commit.branchMispredicts           616994                       # The number of times a branch was mispredicted
system.cpu1.commit.branches                   3416858                       # Number of branches committed
system.cpu1.commit.bw_lim_events                84250                       # number cycles where commit BW limit reached
system.cpu1.commit.commitNonSpecStalls         787051                       # The number of times commit has been forced to stall to communicate backwards
system.cpu1.commit.commitSquashedInsts        5754712                       # The number of squashed insts skipped by commit
system.cpu1.commit.committedInsts            14287002                       # Number of instructions committed
system.cpu1.commit.committedOps              14549339                       # Number of ops (including micro ops) committed
system.cpu1.commit.committed_per_cycle::samples    116576652                       # Number of insts commited each cycle
system.cpu1.commit.committed_per_cycle::mean     0.124805                       # Number of insts commited each cycle
system.cpu1.commit.committed_per_cycle::stdev     0.571123                       # Number of insts commited each cycle
system.cpu1.commit.committed_per_cycle::underflows            0      0.00%      0.00% # Number of insts commited each cycle
system.cpu1.commit.committed_per_cycle::0    108988908     93.49%     93.49% # Number of insts commited each cycle
system.cpu1.commit.committed_per_cycle::1      3975361      3.41%     96.90% # Number of insts commited each cycle
system.cpu1.commit.committed_per_cycle::2      1499638      1.29%     98.19% # Number of insts commited each cycle
system.cpu1.commit.committed_per_cycle::3      1410980      1.21%     99.40% # Number of insts commited each cycle
system.cpu1.commit.committed_per_cycle::4       466991      0.40%     99.80% # Number of insts commited each cycle
system.cpu1.commit.committed_per_cycle::5       114507      0.10%     99.90% # Number of insts commited each cycle
system.cpu1.commit.committed_per_cycle::6        24856      0.02%     99.92% # Number of insts commited each cycle
system.cpu1.commit.committed_per_cycle::7        11161      0.01%     99.93% # Number of insts commited each cycle
system.cpu1.commit.committed_per_cycle::8        84250      0.07%    100.00% # Number of insts commited each cycle
system.cpu1.commit.committed_per_cycle::overflows            0      0.00%    100.00% # Number of insts commited each cycle
system.cpu1.commit.committed_per_cycle::min_value            0                       # Number of insts commited each cycle
system.cpu1.commit.committed_per_cycle::max_value            8                       # Number of insts commited each cycle
system.cpu1.commit.committed_per_cycle::total    116576652                       # Number of insts commited each cycle
system.cpu1.commit.fp_insts                        24                       # Number of committed floating point instructions.
system.cpu1.commit.function_calls               60420                       # Number of function calls committed.
system.cpu1.commit.int_insts                 13497585                       # Number of committed integer instructions.
system.cpu1.commit.loads                      3735918                       # Number of loads committed
system.cpu1.commit.membars                     524559                       # Number of memory barriers committed
system.cpu1.commit.op_class_0::No_OpClass       524559      3.61%      3.61% # Class of committed instruction
system.cpu1.commit.op_class_0::IntAlu         8706061     59.84%     63.44% # Class of committed instruction
system.cpu1.commit.op_class_0::IntMult            638      0.00%     63.45% # Class of committed instruction
system.cpu1.commit.op_class_0::IntDiv              30      0.00%     63.45% # Class of committed instruction
system.cpu1.commit.op_class_0::FloatAdd             0      0.00%     63.45% # Class of committed instruction
system.cpu1.commit.op_class_0::FloatCmp             0      0.00%     63.45% # Class of committed instruction
system.cpu1.commit.op_class_0::FloatCvt             0      0.00%     63.45% # Class of committed instruction
system.cpu1.commit.op_class_0::FloatMult            0      0.00%     63.45% # Class of committed instruction
system.cpu1.commit.op_class_0::FloatMultAcc            0      0.00%     63.45% # Class of committed instruction
system.cpu1.commit.op_class_0::FloatDiv             0      0.00%     63.45% # Class of committed instruction
system.cpu1.commit.op_class_0::FloatMisc            0      0.00%     63.45% # Class of committed instruction
system.cpu1.commit.op_class_0::FloatSqrt            0      0.00%     63.45% # Class of committed instruction
system.cpu1.commit.op_class_0::SimdAdd              0      0.00%     63.45% # Class of committed instruction
system.cpu1.commit.op_class_0::SimdAddAcc            0      0.00%     63.45% # Class of committed instruction
system.cpu1.commit.op_class_0::SimdAlu              0      0.00%     63.45% # Class of committed instruction
system.cpu1.commit.op_class_0::SimdCmp              0      0.00%     63.45% # Class of committed instruction
system.cpu1.commit.op_class_0::SimdCvt              0      0.00%     63.45% # Class of committed instruction
system.cpu1.commit.op_class_0::SimdMisc             0      0.00%     63.45% # Class of committed instruction
system.cpu1.commit.op_class_0::SimdMult             0      0.00%     63.45% # Class of committed instruction
system.cpu1.commit.op_class_0::SimdMultAcc            0      0.00%     63.45% # Class of committed instruction
system.cpu1.commit.op_class_0::SimdShift            0      0.00%     63.45% # Class of committed instruction
system.cpu1.commit.op_class_0::SimdShiftAcc            0      0.00%     63.45% # Class of committed instruction
system.cpu1.commit.op_class_0::SimdDiv              0      0.00%     63.45% # Class of committed instruction
system.cpu1.commit.op_class_0::SimdSqrt             0      0.00%     63.45% # Class of committed instruction
system.cpu1.commit.op_class_0::SimdFloatAdd            0      0.00%     63.45% # Class of committed instruction
system.cpu1.commit.op_class_0::SimdFloatAlu            0      0.00%     63.45% # Class of committed instruction
system.cpu1.commit.op_class_0::SimdFloatCmp            0      0.00%     63.45% # Class of committed instruction
system.cpu1.commit.op_class_0::SimdFloatCvt            0      0.00%     63.45% # Class of committed instruction
system.cpu1.commit.op_class_0::SimdFloatDiv            0      0.00%     63.45% # Class of committed instruction
system.cpu1.commit.op_class_0::SimdFloatMisc            0      0.00%     63.45% # Class of committed instruction
system.cpu1.commit.op_class_0::SimdFloatMult            0      0.00%     63.45% # Class of committed instruction
system.cpu1.commit.op_class_0::SimdFloatMultAcc            0      0.00%     63.45% # Class of committed instruction
system.cpu1.commit.op_class_0::SimdFloatSqrt            0      0.00%     63.45% # Class of committed instruction
system.cpu1.commit.op_class_0::SimdReduceAdd            0      0.00%     63.45% # Class of committed instruction
system.cpu1.commit.op_class_0::SimdReduceAlu            0      0.00%     63.45% # Class of committed instruction
system.cpu1.commit.op_class_0::SimdReduceCmp            0      0.00%     63.45% # Class of committed instruction
system.cpu1.commit.op_class_0::SimdFloatReduceAdd            0      0.00%     63.45% # Class of committed instruction
system.cpu1.commit.op_class_0::SimdFloatReduceCmp            0      0.00%     63.45% # Class of committed instruction
system.cpu1.commit.op_class_0::SimdAes              0      0.00%     63.45% # Class of committed instruction
system.cpu1.commit.op_class_0::SimdAesMix            0      0.00%     63.45% # Class of committed instruction
system.cpu1.commit.op_class_0::SimdSha1Hash            0      0.00%     63.45% # Class of committed instruction
system.cpu1.commit.op_class_0::SimdSha1Hash2            0      0.00%     63.45% # Class of committed instruction
system.cpu1.commit.op_class_0::SimdSha256Hash            0      0.00%     63.45% # Class of committed instruction
system.cpu1.commit.op_class_0::SimdSha256Hash2            0      0.00%     63.45% # Class of committed instruction
system.cpu1.commit.op_class_0::SimdShaSigma2            0      0.00%     63.45% # Class of committed instruction
system.cpu1.commit.op_class_0::SimdShaSigma3            0      0.00%     63.45% # Class of committed instruction
system.cpu1.commit.op_class_0::SimdPredAlu            0      0.00%     63.45% # Class of committed instruction
system.cpu1.commit.op_class_0::MemRead        3998176     27.48%     90.93% # Class of committed instruction
system.cpu1.commit.op_class_0::MemWrite       1319851      9.07%    100.00% # Class of committed instruction
system.cpu1.commit.op_class_0::FloatMemRead            6      0.00%    100.00% # Class of committed instruction
system.cpu1.commit.op_class_0::FloatMemWrite           18      0.00%    100.00% # Class of committed instruction
system.cpu1.commit.op_class_0::IprAccess            0      0.00%    100.00% # Class of committed instruction
system.cpu1.commit.op_class_0::InstPrefetch            0      0.00%    100.00% # Class of committed instruction
system.cpu1.commit.op_class_0::total         14549339                       # Class of committed instruction
system.cpu1.commit.refs                       5318051                       # Number of memory references committed
system.cpu1.commit.swp_count                        0                       # Number of s/w prefetches committed
system.cpu1.commit.vec_insts                        0                       # Number of committed Vector instructions.
system.cpu1.committedInsts                   14287002                       # Number of Instructions Simulated
system.cpu1.committedOps                     14549339                       # Number of Ops (including micro ops) Simulated
system.cpu1.cpi                              8.272883                       # CPI: Cycles Per Instruction
system.cpu1.cpi_total                        8.272883                       # CPI: Total CPI of All Threads
system.cpu1.decode.BlockedCycles            100709743                       # Number of cycles decode is blocked
system.cpu1.decode.BranchMispred                29616                       # Number of times decode detected a branch misprediction
system.cpu1.decode.BranchResolved             3436571                       # Number of times decode resolved a branch
system.cpu1.decode.DecodedInsts              22717432                       # Number of instructions handled by decode
system.cpu1.decode.IdleCycles                 3662750                       # Number of cycles decode is idle
system.cpu1.decode.RunCycles                 11844118                       # Number of cycles decode is running
system.cpu1.decode.SquashCycles                617397                       # Number of cycles decode is squashing
system.cpu1.decode.SquashedInsts                53439                       # Number of squashed instructions handled by decode
system.cpu1.decode.UnblockCycles               790388                       # Number of cycles decode is unblocking
system.cpu1.dtb.accesses                            0                       # DTB accesses
system.cpu1.dtb.hits                                0                       # DTB hits
system.cpu1.dtb.misses                              0                       # DTB misses
system.cpu1.dtb.read_accesses                       0                       # DTB read accesses
system.cpu1.dtb.read_hits                           0                       # DTB read hits
system.cpu1.dtb.read_misses                         0                       # DTB read misses
system.cpu1.dtb.write_accesses                      0                       # DTB write accesses
system.cpu1.dtb.write_hits                          0                       # DTB write hits
system.cpu1.dtb.write_misses                        0                       # DTB write misses
system.cpu1.fetch.Branches                    5982129                       # Number of branches that fetch encountered
system.cpu1.fetch.CacheLines                  2817802                       # Number of cache lines fetched
system.cpu1.fetch.Cycles                    113795949                       # Number of cycles fetch has run and was not squashing or blocked
system.cpu1.fetch.IcacheSquashes               188990                       # Number of outstanding Icache misses that were squashed
system.cpu1.fetch.IcacheWaitRetryStallCycles           20                       # Number of stall cycles due to full MSHR
system.cpu1.fetch.Insts                      23784721                       # Number of instructions fetch has processed
system.cpu1.fetch.MiscStallCycles                   2                       # Number of cycles fetch has spent waiting on interrupts, or bad addresses, or out of MSHRs
system.cpu1.fetch.SquashCycles                1292974                       # Number of cycles fetch has spent squashing
system.cpu1.fetch.branchRate                 0.050613                       # Number of branch fetches per cycle
system.cpu1.fetch.icacheStallCycles           3181938                       # Number of cycles fetch is stalled on an Icache miss
system.cpu1.fetch.predictedBranches           3761315                       # Number of branches that fetch has predicted taken
system.cpu1.fetch.rate                       0.201233                       # Number of inst fetches per cycle
system.cpu1.fetch.rateDist::samples         117624396                       # Number of instructions fetched each cycle (Total)
system.cpu1.fetch.rateDist::mean             0.204442                       # Number of instructions fetched each cycle (Total)
system.cpu1.fetch.rateDist::stdev            0.596693                       # Number of instructions fetched each cycle (Total)
system.cpu1.fetch.rateDist::underflows              0      0.00%      0.00% # Number of instructions fetched each cycle (Total)
system.cpu1.fetch.rateDist::0               101018092     85.88%     85.88% # Number of instructions fetched each cycle (Total)
system.cpu1.fetch.rateDist::1                11741332      9.98%     95.86% # Number of instructions fetched each cycle (Total)
system.cpu1.fetch.rateDist::2                 3243354      2.76%     98.62% # Number of instructions fetched each cycle (Total)
system.cpu1.fetch.rateDist::3                  975579      0.83%     99.45% # Number of instructions fetched each cycle (Total)
system.cpu1.fetch.rateDist::4                  411560      0.35%     99.80% # Number of instructions fetched each cycle (Total)
system.cpu1.fetch.rateDist::5                  174246      0.15%     99.95% # Number of instructions fetched each cycle (Total)
system.cpu1.fetch.rateDist::6                   52779      0.04%     99.99% # Number of instructions fetched each cycle (Total)
system.cpu1.fetch.rateDist::7                    1175      0.00%     99.99% # Number of instructions fetched each cycle (Total)
system.cpu1.fetch.rateDist::8                    6279      0.01%    100.00% # Number of instructions fetched each cycle (Total)
system.cpu1.fetch.rateDist::overflows               0      0.00%    100.00% # Number of instructions fetched each cycle (Total)
system.cpu1.fetch.rateDist::min_value               0                       # Number of instructions fetched each cycle (Total)
system.cpu1.fetch.rateDist::max_value               8                       # Number of instructions fetched each cycle (Total)
system.cpu1.fetch.rateDist::total           117624396                       # Number of instructions fetched each cycle (Total)
system.cpu1.fp_regfile_reads                       18                       # number of floating regfile reads
system.cpu1.fp_regfile_writes                      12                       # number of floating regfile writes
system.cpu1.idleCycles                         570295                       # Total number of cycles that the CPU has spent unscheduled due to idling
system.cpu1.iew.branchMispredicts              641407                       # Number of branch mispredicts detected at execute
system.cpu1.iew.exec_branches                 4091680                       # Number of branches executed
system.cpu1.iew.exec_nop                            0                       # number of nop insts executed
system.cpu1.iew.exec_rate                    0.153817                       # Inst execution rate
system.cpu1.iew.exec_refs                     6378909                       # number of memory reference insts executed
system.cpu1.iew.exec_stores                   1955722                       # Number of stores executed
system.cpu1.iew.exec_swp                            0                       # number of swp insts executed
system.cpu1.iew.iewBlockCycles               94302044                       # Number of cycles IEW is blocking
system.cpu1.iew.iewDispLoadInsts              4954448                       # Number of dispatched load instructions
system.cpu1.iew.iewDispNonSpecInsts            262740                       # Number of dispatched non-speculative instructions
system.cpu1.iew.iewDispSquashedInsts           569004                       # Number of squashed instructions skipped by dispatch
system.cpu1.iew.iewDispStoreInsts             2313218                       # Number of dispatched store instructions
system.cpu1.iew.iewDispatchedInsts           20301853                       # Number of instructions dispatched to IQ
system.cpu1.iew.iewExecLoadInsts              4423187                       # Number of load instructions executed
system.cpu1.iew.iewExecSquashedInsts           772196                       # Number of squashed instructions skipped in execute
system.cpu1.iew.iewExecutedInsts             18180394                       # Number of executed instructions
system.cpu1.iew.iewIQFullEvents                396700                       # Number of times the IQ has become full, causing a stall
system.cpu1.iew.iewIdleCycles                       0                       # Number of cycles IEW is idle
system.cpu1.iew.iewLSQFullEvents               255494                       # Number of times the LSQ has become full, causing a stall
system.cpu1.iew.iewSquashCycles                617397                       # Number of cycles IEW is squashing
system.cpu1.iew.iewUnblockCycles              1014049                       # Number of cycles IEW is unblocking
system.cpu1.iew.lsq.thread0.blockedLoads            0                       # Number of blocked loads due to partial load-store forwarding
system.cpu1.iew.lsq.thread0.cacheBlocked        13166                       # Number of times an access to memory failed due to the cache being blocked
system.cpu1.iew.lsq.thread0.forwLoads          152762                       # Number of loads that had data forwarded from stores
system.cpu1.iew.lsq.thread0.ignoredResponses         6447                       # Number of memory responses ignored because the instruction is squashed
system.cpu1.iew.lsq.thread0.invAddrLoads            0                       # Number of loads ignored due to an invalid address
system.cpu1.iew.lsq.thread0.invAddrSwpfs            0                       # Number of software prefetches ignored due to an invalid address
system.cpu1.iew.lsq.thread0.memOrderViolation          872                       # Number of memory ordering violations
system.cpu1.iew.lsq.thread0.rescheduledLoads          399                       # Number of loads that were rescheduled
system.cpu1.iew.lsq.thread0.squashedLoads      1218530                       # Number of loads squashed
system.cpu1.iew.lsq.thread0.squashedStores       731085                       # Number of stores squashed
system.cpu1.iew.memOrderViolationEvents           872                       # Number of memory order violations
system.cpu1.iew.predictedNotTakenIncorrect       297770                       # Number of branches that were predicted not taken incorrectly
system.cpu1.iew.predictedTakenIncorrect        343637                       # Number of branches that were predicted taken incorrectly
system.cpu1.iew.wb_consumers                  8580028                       # num instructions consuming a value
system.cpu1.iew.wb_count                     17781816                       # cumulative count of insts written-back
system.cpu1.iew.wb_fanout                    0.773726                       # average fanout of values written-back
system.cpu1.iew.wb_producers                  6638587                       # num instructions producing a value
system.cpu1.iew.wb_rate                      0.150445                       # insts written-back per cycle
system.cpu1.iew.wb_sent                      17803904                       # cumulative count of insts sent to commit
system.cpu1.int_regfile_reads                22834732                       # number of integer regfile reads
system.cpu1.int_regfile_writes               11530743                       # number of integer regfile writes
system.cpu1.ipc                              0.120877                       # IPC: Instructions Per Cycle
system.cpu1.ipc_total                        0.120877                       # IPC: Total IPC of All Threads
system.cpu1.iq.FU_type_0::No_OpClass           524636      2.77%      2.77% # Type of FU issued
system.cpu1.iq.FU_type_0::IntAlu             11769491     62.10%     64.87% # Type of FU issued
system.cpu1.iq.FU_type_0::IntMult                 648      0.00%     64.87% # Type of FU issued
system.cpu1.iq.FU_type_0::IntDiv                   30      0.00%     64.87% # Type of FU issued
system.cpu1.iq.FU_type_0::FloatAdd                  0      0.00%     64.87% # Type of FU issued
system.cpu1.iq.FU_type_0::FloatCmp                  0      0.00%     64.87% # Type of FU issued
system.cpu1.iq.FU_type_0::FloatCvt                  0      0.00%     64.87% # Type of FU issued
system.cpu1.iq.FU_type_0::FloatMult                 0      0.00%     64.87% # Type of FU issued
system.cpu1.iq.FU_type_0::FloatMultAcc              0      0.00%     64.87% # Type of FU issued
system.cpu1.iq.FU_type_0::FloatDiv                  0      0.00%     64.87% # Type of FU issued
system.cpu1.iq.FU_type_0::FloatMisc                 0      0.00%     64.87% # Type of FU issued
system.cpu1.iq.FU_type_0::FloatSqrt                 0      0.00%     64.87% # Type of FU issued
system.cpu1.iq.FU_type_0::SimdAdd                   0      0.00%     64.87% # Type of FU issued
system.cpu1.iq.FU_type_0::SimdAddAcc                0      0.00%     64.87% # Type of FU issued
system.cpu1.iq.FU_type_0::SimdAlu                   0      0.00%     64.87% # Type of FU issued
system.cpu1.iq.FU_type_0::SimdCmp                   0      0.00%     64.87% # Type of FU issued
system.cpu1.iq.FU_type_0::SimdCvt                   0      0.00%     64.87% # Type of FU issued
system.cpu1.iq.FU_type_0::SimdMisc                  0      0.00%     64.87% # Type of FU issued
system.cpu1.iq.FU_type_0::SimdMult                  0      0.00%     64.87% # Type of FU issued
system.cpu1.iq.FU_type_0::SimdMultAcc               0      0.00%     64.87% # Type of FU issued
system.cpu1.iq.FU_type_0::SimdShift                 0      0.00%     64.87% # Type of FU issued
system.cpu1.iq.FU_type_0::SimdShiftAcc              0      0.00%     64.87% # Type of FU issued
system.cpu1.iq.FU_type_0::SimdDiv                   0      0.00%     64.87% # Type of FU issued
system.cpu1.iq.FU_type_0::SimdSqrt                  0      0.00%     64.87% # Type of FU issued
system.cpu1.iq.FU_type_0::SimdFloatAdd              0      0.00%     64.87% # Type of FU issued
system.cpu1.iq.FU_type_0::SimdFloatAlu              0      0.00%     64.87% # Type of FU issued
system.cpu1.iq.FU_type_0::SimdFloatCmp              0      0.00%     64.87% # Type of FU issued
system.cpu1.iq.FU_type_0::SimdFloatCvt              0      0.00%     64.87% # Type of FU issued
system.cpu1.iq.FU_type_0::SimdFloatDiv              0      0.00%     64.87% # Type of FU issued
system.cpu1.iq.FU_type_0::SimdFloatMisc             0      0.00%     64.87% # Type of FU issued
system.cpu1.iq.FU_type_0::SimdFloatMult             0      0.00%     64.87% # Type of FU issued
system.cpu1.iq.FU_type_0::SimdFloatMultAcc            0      0.00%     64.87% # Type of FU issued
system.cpu1.iq.FU_type_0::SimdFloatSqrt             0      0.00%     64.87% # Type of FU issued
system.cpu1.iq.FU_type_0::SimdReduceAdd             0      0.00%     64.87% # Type of FU issued
system.cpu1.iq.FU_type_0::SimdReduceAlu             0      0.00%     64.87% # Type of FU issued
system.cpu1.iq.FU_type_0::SimdReduceCmp             0      0.00%     64.87% # Type of FU issued
system.cpu1.iq.FU_type_0::SimdFloatReduceAdd            0      0.00%     64.87% # Type of FU issued
system.cpu1.iq.FU_type_0::SimdFloatReduceCmp            0      0.00%     64.87% # Type of FU issued
system.cpu1.iq.FU_type_0::SimdAes                   0      0.00%     64.87% # Type of FU issued
system.cpu1.iq.FU_type_0::SimdAesMix                0      0.00%     64.87% # Type of FU issued
system.cpu1.iq.FU_type_0::SimdSha1Hash              0      0.00%     64.87% # Type of FU issued
system.cpu1.iq.FU_type_0::SimdSha1Hash2             0      0.00%     64.87% # Type of FU issued
system.cpu1.iq.FU_type_0::SimdSha256Hash            0      0.00%     64.87% # Type of FU issued
system.cpu1.iq.FU_type_0::SimdSha256Hash2            0      0.00%     64.87% # Type of FU issued
system.cpu1.iq.FU_type_0::SimdShaSigma2             0      0.00%     64.87% # Type of FU issued
system.cpu1.iq.FU_type_0::SimdShaSigma3             0      0.00%     64.87% # Type of FU issued
system.cpu1.iq.FU_type_0::SimdPredAlu               0      0.00%     64.87% # Type of FU issued
system.cpu1.iq.FU_type_0::MemRead             4884308     25.77%     90.64% # Type of FU issued
system.cpu1.iq.FU_type_0::MemWrite            1773435      9.36%    100.00% # Type of FU issued
system.cpu1.iq.FU_type_0::FloatMemRead             24      0.00%    100.00% # Type of FU issued
system.cpu1.iq.FU_type_0::FloatMemWrite            18      0.00%    100.00% # Type of FU issued
system.cpu1.iq.FU_type_0::IprAccess                 0      0.00%    100.00% # Type of FU issued
system.cpu1.iq.FU_type_0::InstPrefetch              0      0.00%    100.00% # Type of FU issued
system.cpu1.iq.FU_type_0::total              18952590                       # Type of FU issued
system.cpu1.iq.fp_alu_accesses                     48                       # Number of floating point alu accesses
system.cpu1.iq.fp_inst_queue_reads                 90                       # Number of floating instruction queue reads
system.cpu1.iq.fp_inst_queue_wakeup_accesses           30                       # Number of floating instruction queue wakeup accesses
system.cpu1.iq.fp_inst_queue_writes                36                       # Number of floating instruction queue writes
system.cpu1.iq.fu_busy_cnt                     135266                       # FU busy when requested
system.cpu1.iq.fu_busy_rate                  0.007137                       # FU busy rate (busy events/executed inst)
system.cpu1.iq.fu_full::No_OpClass                  0      0.00%      0.00% # attempts to use FU when none available
system.cpu1.iq.fu_full::IntAlu                  45542     33.67%     33.67% # attempts to use FU when none available
system.cpu1.iq.fu_full::IntMult                     0      0.00%     33.67% # attempts to use FU when none available
system.cpu1.iq.fu_full::IntDiv                      0      0.00%     33.67% # attempts to use FU when none available
system.cpu1.iq.fu_full::FloatAdd                    0      0.00%     33.67% # attempts to use FU when none available
system.cpu1.iq.fu_full::FloatCmp                    0      0.00%     33.67% # attempts to use FU when none available
system.cpu1.iq.fu_full::FloatCvt                    0      0.00%     33.67% # attempts to use FU when none available
system.cpu1.iq.fu_full::FloatMult                   0      0.00%     33.67% # attempts to use FU when none available
system.cpu1.iq.fu_full::FloatMultAcc                0      0.00%     33.67% # attempts to use FU when none available
system.cpu1.iq.fu_full::FloatDiv                    0      0.00%     33.67% # attempts to use FU when none available
system.cpu1.iq.fu_full::FloatMisc                   0      0.00%     33.67% # attempts to use FU when none available
system.cpu1.iq.fu_full::FloatSqrt                   0      0.00%     33.67% # attempts to use FU when none available
system.cpu1.iq.fu_full::SimdAdd                     0      0.00%     33.67% # attempts to use FU when none available
system.cpu1.iq.fu_full::SimdAddAcc                  0      0.00%     33.67% # attempts to use FU when none available
system.cpu1.iq.fu_full::SimdAlu                     0      0.00%     33.67% # attempts to use FU when none available
system.cpu1.iq.fu_full::SimdCmp                     0      0.00%     33.67% # attempts to use FU when none available
system.cpu1.iq.fu_full::SimdCvt                     0      0.00%     33.67% # attempts to use FU when none available
system.cpu1.iq.fu_full::SimdMisc                    0      0.00%     33.67% # attempts to use FU when none available
system.cpu1.iq.fu_full::SimdMult                    0      0.00%     33.67% # attempts to use FU when none available
system.cpu1.iq.fu_full::SimdMultAcc                 0      0.00%     33.67% # attempts to use FU when none available
system.cpu1.iq.fu_full::SimdShift                   0      0.00%     33.67% # attempts to use FU when none available
system.cpu1.iq.fu_full::SimdShiftAcc                0      0.00%     33.67% # attempts to use FU when none available
system.cpu1.iq.fu_full::SimdDiv                     0      0.00%     33.67% # attempts to use FU when none available
system.cpu1.iq.fu_full::SimdSqrt                    0      0.00%     33.67% # attempts to use FU when none available
system.cpu1.iq.fu_full::SimdFloatAdd                0      0.00%     33.67% # attempts to use FU when none available
system.cpu1.iq.fu_full::SimdFloatAlu                0      0.00%     33.67% # attempts to use FU when none available
system.cpu1.iq.fu_full::SimdFloatCmp                0      0.00%     33.67% # attempts to use FU when none available
system.cpu1.iq.fu_full::SimdFloatCvt                0      0.00%     33.67% # attempts to use FU when none available
system.cpu1.iq.fu_full::SimdFloatDiv                0      0.00%     33.67% # attempts to use FU when none available
system.cpu1.iq.fu_full::SimdFloatMisc               0      0.00%     33.67% # attempts to use FU when none available
system.cpu1.iq.fu_full::SimdFloatMult               0      0.00%     33.67% # attempts to use FU when none available
system.cpu1.iq.fu_full::SimdFloatMultAcc            0      0.00%     33.67% # attempts to use FU when none available
system.cpu1.iq.fu_full::SimdFloatSqrt               0      0.00%     33.67% # attempts to use FU when none available
system.cpu1.iq.fu_full::SimdReduceAdd               0      0.00%     33.67% # attempts to use FU when none available
system.cpu1.iq.fu_full::SimdReduceAlu               0      0.00%     33.67% # attempts to use FU when none available
system.cpu1.iq.fu_full::SimdReduceCmp               0      0.00%     33.67% # attempts to use FU when none available
system.cpu1.iq.fu_full::SimdFloatReduceAdd            0      0.00%     33.67% # attempts to use FU when none available
system.cpu1.iq.fu_full::SimdFloatReduceCmp            0      0.00%     33.67% # attempts to use FU when none available
system.cpu1.iq.fu_full::SimdAes                     0      0.00%     33.67% # attempts to use FU when none available
system.cpu1.iq.fu_full::SimdAesMix                  0      0.00%     33.67% # attempts to use FU when none available
system.cpu1.iq.fu_full::SimdSha1Hash                0      0.00%     33.67% # attempts to use FU when none available
system.cpu1.iq.fu_full::SimdSha1Hash2               0      0.00%     33.67% # attempts to use FU when none available
system.cpu1.iq.fu_full::SimdSha256Hash              0      0.00%     33.67% # attempts to use FU when none available
system.cpu1.iq.fu_full::SimdSha256Hash2             0      0.00%     33.67% # attempts to use FU when none available
system.cpu1.iq.fu_full::SimdShaSigma2               0      0.00%     33.67% # attempts to use FU when none available
system.cpu1.iq.fu_full::SimdShaSigma3               0      0.00%     33.67% # attempts to use FU when none available
system.cpu1.iq.fu_full::SimdPredAlu                 0      0.00%     33.67% # attempts to use FU when none available
[...]
system.cpu1.dcache.WriteReq_mshr_miss_latency::total   6898687653                       # number of WriteReq MSHR miss cycles
system.cpu1.dcache.WriteReq_mshr_miss_rate::.cpu1.data     0.064074                       # mshr miss rate for WriteReq accesses
system.cpu1.dcache.WriteReq_mshr_miss_rate::total     0.064074                       # mshr miss rate for WriteReq accesses
system.cpu1.dcache.WriteReq_avg_mshr_miss_latency::.cpu1.data 83371.856682                       # average WriteReq mshr miss latency
system.cpu1.dcache.WriteReq_avg_mshr_miss_latency::total 83371.856682                       # average WriteReq mshr miss latency
system.cpu1.dcache.LoadLockedReq_hits::.cpu1.data         3154                       # number of LoadLockedReq hits
system.cpu1.dcache.LoadLockedReq_hits::total         3154                       # number of LoadLockedReq hits
system.cpu1.dcache.LoadLockedReq_misses::.cpu1.data          856                       # number of LoadLockedReq misses
system.cpu1.dcache.LoadLockedReq_misses::total          856                       # number of LoadLockedReq misses
system.cpu1.dcache.LoadLockedReq_miss_latency::.cpu1.data     24023500                       # number of LoadLockedReq miss cycles
system.cpu1.dcache.LoadLockedReq_miss_latency::total     24023500                       # number of LoadLockedReq miss cycles
system.cpu1.dcache.LoadLockedReq_accesses::.cpu1.data         4010                       # number of LoadLockedReq accesses(hits+misses)
system.cpu1.dcache.LoadLockedReq_accesses::total         4010                       # number of LoadLockedReq accesses(hits+misses)
system.cpu1.dcache.LoadLockedReq_miss_rate::.cpu1.data     0.213466                       # miss rate for LoadLockedReq accesses
system.cpu1.dcache.LoadLockedReq_miss_rate::total     0.213466                       # miss rate for LoadLockedReq accesses
system.cpu1.dcache.LoadLockedReq_avg_miss_latency::.cpu1.data 28064.836449                       # average LoadLockedReq miss latency
system.cpu1.dcache.LoadLockedReq_avg_miss_latency::total 28064.836449                       # average LoadLockedReq miss latency
system.cpu1.dcache.LoadLockedReq_mshr_hits::.cpu1.data          341                       # number of LoadLockedReq MSHR hits
system.cpu1.dcache.LoadLockedReq_mshr_hits::total          341                       # number of LoadLockedReq MSHR hits
system.cpu1.dcache.LoadLockedReq_mshr_misses::.cpu1.data          515                       # number of LoadLockedReq MSHR misses
system.cpu1.dcache.LoadLockedReq_mshr_misses::total          515                       # number of LoadLockedReq MSHR misses
system.cpu1.dcache.LoadLockedReq_mshr_miss_latency::.cpu1.data      2724500                       # number of LoadLockedReq MSHR miss cycles
system.cpu1.dcache.LoadLockedReq_mshr_miss_latency::total      2724500                       # number of LoadLockedReq MSHR miss cycles
system.cpu1.dcache.LoadLockedReq_mshr_miss_rate::.cpu1.data     0.128429                       # mshr miss rate for LoadLockedReq accesses
system.cpu1.dcache.LoadLockedReq_mshr_miss_rate::total     0.128429                       # mshr miss rate for LoadLockedReq accesses
system.cpu1.dcache.LoadLockedReq_avg_mshr_miss_latency::.cpu1.data  5290.291262                       # average LoadLockedReq mshr miss latency
system.cpu1.dcache.LoadLockedReq_avg_mshr_miss_latency::total  5290.291262                       # average LoadLockedReq mshr miss latency
system.cpu1.dcache.StoreCondReq_hits::.cpu1.data         1451                       # number of StoreCondReq hits
system.cpu1.dcache.StoreCondReq_hits::total         1451                       # number of StoreCondReq hits
system.cpu1.dcache.StoreCondReq_misses::.cpu1.data         1396                       # number of StoreCondReq misses
system.cpu1.dcache.StoreCondReq_misses::total         1396                       # number of StoreCondReq misses
system.cpu1.dcache.StoreCondReq_miss_latency::.cpu1.data      8546000                       # number of StoreCondReq miss cycles
system.cpu1.dcache.StoreCondReq_miss_latency::total      8546000                       # number of StoreCondReq miss cycles
system.cpu1.dcache.StoreCondReq_accesses::.cpu1.data         2847                       # number of StoreCondReq accesses(hits+misses)
system.cpu1.dcache.StoreCondReq_accesses::total         2847                       # number of StoreCondReq accesses(hits+misses)
system.cpu1.dcache.StoreCondReq_miss_rate::.cpu1.data     0.490341                       # miss rate for StoreCondReq accesses
system.cpu1.dcache.StoreCondReq_miss_rate::total     0.490341                       # miss rate for StoreCondReq accesses
system.cpu1.dcache.StoreCondReq_avg_miss_latency::.cpu1.data  6121.776504                       # average StoreCondReq miss latency
system.cpu1.dcache.StoreCondReq_avg_miss_latency::total  6121.776504                       # average StoreCondReq miss latency
system.cpu1.dcache.StoreCondReq_mshr_misses::.cpu1.data         1348                       # number of StoreCondReq MSHR misses
system.cpu1.dcache.StoreCondReq_mshr_misses::total         1348                       # number of StoreCondReq MSHR misses
system.cpu1.dcache.StoreCondReq_mshr_miss_latency::.cpu1.data      7391000                       # number of StoreCondReq MSHR miss cycles
system.cpu1.dcache.StoreCondReq_mshr_miss_latency::total      7391000                       # number of StoreCondReq MSHR miss cycles
system.cpu1.dcache.StoreCondReq_mshr_miss_rate::.cpu1.data     0.473481                       # mshr miss rate for StoreCondReq accesses
system.cpu1.dcache.StoreCondReq_mshr_miss_rate::total     0.473481                       # mshr miss rate for StoreCondReq accesses
system.cpu1.dcache.StoreCondReq_avg_mshr_miss_latency::.cpu1.data  5482.937685                       # average StoreCondReq mshr miss latency
system.cpu1.dcache.StoreCondReq_avg_mshr_miss_latency::total  5482.937685                       # average StoreCondReq mshr miss latency
system.cpu1.dcache.StoreCondFailReq_miss_latency::.cpu1.data      1971500                       # number of StoreCondFailReq miss cycles
system.cpu1.dcache.StoreCondFailReq_miss_latency::total      1971500                       # number of StoreCondFailReq miss cycles
system.cpu1.dcache.StoreCondFailReq_avg_miss_latency::.cpu1.data          inf                       # average StoreCondFailReq miss latency
system.cpu1.dcache.StoreCondFailReq_avg_miss_latency::total          inf                       # average StoreCondFailReq miss latency
system.cpu1.dcache.StoreCondFailReq_mshr_miss_latency::.cpu1.data      1778500                       # number of StoreCondFailReq MSHR miss cycles
system.cpu1.dcache.StoreCondFailReq_mshr_miss_latency::total      1778500                       # number of StoreCondFailReq MSHR miss cycles
system.cpu1.dcache.StoreCondFailReq_avg_mshr_miss_latency::.cpu1.data          inf                       # average StoreCondFailReq mshr miss latency
system.cpu1.dcache.StoreCondFailReq_avg_mshr_miss_latency::total          inf                       # average StoreCondFailReq mshr miss latency
system.cpu1.dcache.SwapReq_hits::.cpu1.data         1026                       # number of SwapReq hits
system.cpu1.dcache.SwapReq_hits::total           1026                       # number of SwapReq hits
system.cpu1.dcache.SwapReq_misses::.cpu1.data        11187                       # number of SwapReq misses
system.cpu1.dcache.SwapReq_misses::total        11187                       # number of SwapReq misses
system.cpu1.dcache.SwapReq_miss_latency::.cpu1.data    493649500                       # number of SwapReq miss cycles
system.cpu1.dcache.SwapReq_miss_latency::total    493649500                       # number of SwapReq miss cycles
system.cpu1.dcache.SwapReq_accesses::.cpu1.data        12213                       # number of SwapReq accesses(hits+misses)
system.cpu1.dcache.SwapReq_accesses::total        12213                       # number of SwapReq accesses(hits+misses)
system.cpu1.dcache.SwapReq_miss_rate::.cpu1.data     0.915991                       # miss rate for SwapReq accesses
system.cpu1.dcache.SwapReq_miss_rate::total     0.915991                       # miss rate for SwapReq accesses
system.cpu1.dcache.SwapReq_avg_miss_latency::.cpu1.data 44127.067131                       # average SwapReq miss latency
system.cpu1.dcache.SwapReq_avg_miss_latency::total 44127.067131                       # average SwapReq miss latency
system.cpu1.dcache.SwapReq_mshr_hits::.cpu1.data            1                       # number of SwapReq MSHR hits
system.cpu1.dcache.SwapReq_mshr_hits::total            1                       # number of SwapReq MSHR hits
system.cpu1.dcache.SwapReq_mshr_misses::.cpu1.data        11186                       # number of SwapReq MSHR misses
system.cpu1.dcache.SwapReq_mshr_misses::total        11186                       # number of SwapReq MSHR misses
system.cpu1.dcache.SwapReq_mshr_miss_latency::.cpu1.data    482459000                       # number of SwapReq MSHR miss cycles
system.cpu1.dcache.SwapReq_mshr_miss_latency::total    482459000                       # number of SwapReq MSHR miss cycles
system.cpu1.dcache.SwapReq_mshr_miss_rate::.cpu1.data     0.915909                       # mshr miss rate for SwapReq accesses
system.cpu1.dcache.SwapReq_mshr_miss_rate::total     0.915909                       # mshr miss rate for SwapReq accesses
system.cpu1.dcache.SwapReq_avg_mshr_miss_latency::.cpu1.data 43130.609691                       # average SwapReq mshr miss latency
system.cpu1.dcache.SwapReq_avg_mshr_miss_latency::total 43130.609691                       # average SwapReq mshr miss latency
system.cpu1.dcache.tags.pwrStateResidencyTicks::UNDEFINED 402352798500                       # Cumulative time (in ticks) in various power states
system.cpu1.dcache.tags.tagsinuse           31.895165                       # Cycle average of tags in use
system.cpu1.dcache.tags.total_refs           28327812                       # Total number of references to valid blocks.
system.cpu1.dcache.tags.sampled_refs         15006730                       # Sample count of references to valid blocks.
system.cpu1.dcache.tags.avg_refs             1.887674                       # Average number of references to valid blocks.
system.cpu1.dcache.tags.warmup_cycle                0                       # Cycle when the warmup percentage was hit.
system.cpu1.dcache.tags.occ_blocks::.cpu1.data    31.895165                       # Average occupied blocks per requestor
system.cpu1.dcache.tags.occ_percent::.cpu1.data     0.996724                       # Average percentage of cache occupancy
system.cpu1.dcache.tags.occ_percent::total     0.996724                       # Average percentage of cache occupancy
system.cpu1.dcache.tags.occ_task_id_blocks::1024           26                       # Occupied blocks per task id
system.cpu1.dcache.tags.age_task_id_blocks_1024::1            2                       # Occupied blocks per task id
system.cpu1.dcache.tags.age_task_id_blocks_1024::2           24                       # Occupied blocks per task id
system.cpu1.dcache.tags.occ_task_id_percent::1024     0.812500                       # Percentage of cache occupancy per task id
system.cpu1.dcache.tags.tag_accesses         89541284                       # Number of tag accesses
system.cpu1.dcache.tags.data_accesses        89541284                       # Number of data accesses
system.cpu_clk_domain.clock                       500                       # Clock period in ticks
system.tol2bus.pwrStateResidencyTicks::UNDEFINED 402352798500                       # Cumulative time (in ticks) in various power states
system.tol2bus.trans_dist::ReadResp          59844641                       # Transaction distribution
system.tol2bus.trans_dist::ReadRespWithInvalidate           25                       # Transaction distribution
system.tol2bus.trans_dist::WritebackDirty      1643411                       # Transaction distribution
system.tol2bus.trans_dist::WritebackClean     59274479                       # Transaction distribution
system.tol2bus.trans_dist::CleanEvict       102655808                       # Transaction distribution
system.tol2bus.trans_dist::UpgradeReq           13451                       # Transaction distribution
system.tol2bus.trans_dist::SCUpgradeReq          4650                       # Transaction distribution
system.tol2bus.trans_dist::UpgradeResp          18101                       # Transaction distribution
system.tol2bus.trans_dist::SCUpgradeFailReq          541                       # Transaction distribution
system.tol2bus.trans_dist::UpgradeFailResp          541                       # Transaction distribution
system.tol2bus.trans_dist::ReadExReq           377567                       # Transaction distribution
system.tol2bus.trans_dist::ReadExResp          377567                       # Transaction distribution
system.tol2bus.trans_dist::ReadCleanReq        123104                       # Transaction distribution
system.tol2bus.trans_dist::ReadSharedReq     59721563                       # Transaction distribution
system.tol2bus.pkt_count_system.cpu0.icache.mem_side::system.l2.cpu_side       222379                       # Packet count per connected master and slave (bytes)
system.tol2bus.pkt_count_system.cpu0.dcache.mem_side::system.l2.cpu_side     45178102                       # Packet count per connected master and slave (bytes)
system.tol2bus.pkt_count_system.cpu1.icache.mem_side::system.l2.cpu_side        48411                       # Packet count per connected master and slave (bytes)
system.tol2bus.pkt_count_system.cpu1.dcache.mem_side::system.l2.cpu_side     45006059                       # Packet count per connected master and slave (bytes)
system.tol2bus.pkt_count_system.cpu2.icache.mem_side::system.l2.cpu_side        48804                       # Packet count per connected master and slave (bytes)
system.tol2bus.pkt_count_system.cpu2.dcache.mem_side::system.l2.cpu_side     45022166                       # Packet count per connected master and slave (bytes)
system.tol2bus.pkt_count_system.cpu3.icache.mem_side::system.l2.cpu_side        49716                       # Packet count per connected master and slave (bytes)
system.tol2bus.pkt_count_system.cpu3.dcache.mem_side::system.l2.cpu_side     45039820                       # Packet count per connected master and slave (bytes)
system.tol2bus.pkt_count::total             180615457                       # Packet count per connected master and slave (bytes)
system.tol2bus.pkt_size_system.cpu0.icache.mem_side::system.l2.cpu_side      9488128                       # Cumulative packet size per connected master and slave (bytes)
system.tol2bus.pkt_size_system.cpu0.dcache.mem_side::system.l2.cpu_side   1926992192                       # Cumulative packet size per connected master and slave (bytes)
system.tol2bus.pkt_size_system.cpu1.icache.mem_side::system.l2.cpu_side      2065536                       # Cumulative packet size per connected master and slave (bytes)
system.tol2bus.pkt_size_system.cpu1.dcache.mem_side::system.l2.cpu_side   1919601920                       # Cumulative packet size per connected master and slave (bytes)
system.tol2bus.pkt_size_system.cpu2.icache.mem_side::system.l2.cpu_side      2082304                       # Cumulative packet size per connected master and slave (bytes)
system.tol2bus.pkt_size_system.cpu2.dcache.mem_side::system.l2.cpu_side   1920322560                       # Cumulative packet size per connected master and slave (bytes)
system.tol2bus.pkt_size_system.cpu3.icache.mem_side::system.l2.cpu_side      2121216                       # Cumulative packet size per connected master and slave (bytes)
system.tol2bus.pkt_size_system.cpu3.dcache.mem_side::system.l2.cpu_side   1921019392                       # Cumulative packet size per connected master and slave (bytes)
system.tol2bus.pkt_size::total             7703693248                       # Cumulative packet size per connected master and slave (bytes)
system.tol2bus.snoops                       103439992                       # Total snoops (count)
system.tol2bus.snoopTraffic                  49309248                       # Total snoop traffic (bytes)
system.tol2bus.snoop_fanout::samples        163627102                       # Request fanout histogram
system.tol2bus.snoop_fanout::mean            0.423208                       # Request fanout histogram
system.tol2bus.snoop_fanout::stdev           0.579304                       # Request fanout histogram
system.tol2bus.snoop_fanout::underflows             0      0.00%      0.00% # Request fanout histogram
system.tol2bus.snoop_fanout::0              101271864     61.89%     61.89% # Request fanout histogram
system.tol2bus.snoop_fanout::1               56020452     34.24%     96.13% # Request fanout histogram
system.tol2bus.snoop_fanout::2                5810271      3.55%     99.68% # Request fanout histogram
system.tol2bus.snoop_fanout::3                 490735      0.30%     99.98% # Request fanout histogram
system.tol2bus.snoop_fanout::4                  33780      0.02%    100.00% # Request fanout histogram
system.tol2bus.snoop_fanout::5                      0      0.00%    100.00% # Request fanout histogram
system.tol2bus.snoop_fanout::6                      0      0.00%    100.00% # Request fanout histogram
system.tol2bus.snoop_fanout::7                      0      0.00%    100.00% # Request fanout histogram
system.tol2bus.snoop_fanout::8                      0      0.00%    100.00% # Request fanout histogram
system.tol2bus.snoop_fanout::overflows              0      0.00%    100.00% # Request fanout histogram
system.tol2bus.snoop_fanout::min_value              0                       # Request fanout histogram
system.tol2bus.snoop_fanout::max_value              4                       # Request fanout histogram
system.tol2bus.snoop_fanout::total          163627102                       # Request fanout histogram
system.tol2bus.reqLayer0.occupancy       120402579408                       # Layer occupancy (ticks)
system.tol2bus.reqLayer0.utilization             29.9                       # Layer utilization (%)
system.tol2bus.respLayer5.occupancy       22664935874                       # Layer occupancy (ticks)
system.tol2bus.respLayer5.utilization             5.6                       # Layer utilization (%)
system.tol2bus.respLayer4.occupancy          25626809                       # Layer occupancy (ticks)
system.tol2bus.respLayer4.utilization             0.0                       # Layer utilization (%)
system.tol2bus.respLayer7.occupancy       22675289784                       # Layer occupancy (ticks)
system.tol2bus.respLayer7.utilization             5.6                       # Layer utilization (%)
system.tol2bus.respLayer6.occupancy          25973014                       # Layer occupancy (ticks)
system.tol2bus.respLayer6.utilization             0.0                       # Layer utilization (%)
system.tol2bus.respLayer1.occupancy       22742817721                       # Layer occupancy (ticks)
system.tol2bus.respLayer1.utilization             5.7                       # Layer utilization (%)
system.tol2bus.respLayer0.occupancy         111401505                       # Layer occupancy (ticks)
system.tol2bus.respLayer0.utilization             0.0                       # Layer utilization (%)
system.tol2bus.respLayer3.occupancy       22657612701                       # Layer occupancy (ticks)
system.tol2bus.respLayer3.utilization             5.6                       # Layer utilization (%)
system.tol2bus.respLayer2.occupancy          25532599                       # Layer occupancy (ticks)
system.tol2bus.respLayer2.utilization             0.0                       # Layer utilization (%)

---------- End Simulation Statistics   ----------
