gem5 Simulator System.  http://gem5.org
gem5 is copyrighted software; use the --copyright option for details.

gem5 compiled Mar 27 2020 00:28:59
gem5 started Apr 12 2020 04:37:54
gem5 executing on muhammet, pid 22620
command line: /home/muhammet/Desktop/gem5/build/RISCV/gem5.fast -re --outdir=/home/muhammet/Desktop/gem5/results/bc/slashdot.el/prefetch_IndirectMemoryPrefetcher --stdout-file=output.txt --stderr-file=error.txt /home/muhammet/Desktop/gem5/configs/example/my_se.py -c /home/muhammet/Desktop/gem5/gapbs/bc -o '-f /home/muhammet/Desktop/gem5/gapbs/test/graphs/slashdot.el' --caches --l1d_size=2kB --l1i_size=2kB --cpu-type=DerivO3CPU -n 4 --mem-size=512MB --l2cache --l2_size=4kB --l2-hwp-type=IndirectMemoryPrefetcher --l1i_mshrs=4 --l1d_mshrs=4 --l2_mshrs=20 --l1i_write_buffers=8 --l1d_write_buffers=8 --l2_write_buffers=8

Warning: l2-hwp-type is set ( IndirectMemoryPrefetcher ), but the current l2 has a default Hardware Prefetcher of type <class 'm5.params.NullSimObject'> , using the specified by the flag option.
Global frequency set at 1000000000000 ticks per second
**** REAL SIMULATION ****
Read Time:           0.80843
Build Time:          0.09075
Graph has 77360 nodes and 828161 directed edges for degree: 10
    a                0.00008
source: 15461
    b                0.01912
    p                0.00687
Trial Time:          0.02678
    a                0.00007
source: 1347
    b                0.01755
    p                0.00564
Trial Time:          0.02396
    a                0.00007
source: 20945
    b                0.02056
    p                0.00724
Trial Time:          0.02856
    a                0.00008
source: 21436
    b                0.02110
    p                0.00725
Trial Time:          0.02913
    a                0.00008
source: 31632
    b                0.01811
    p                0.00628
Trial Time:          0.02516
    a                0.00008
source: 71728
    b                0.01912
    p                0.00662
Trial Time:          0.02652
    a                0.00008
source: 18442
    b                0.01926
    p                0.00663
Trial Time:          0.02667
    a                0.00008
source: 39870
    b                0.02012
    p                0.00723
Trial Time:          0.02813
    a                0.00008
source: 65816
    b                0.02060
    p                0.00723
Trial Time:          0.02861
    a                0.00008
source: 13597
    b                0.01804
    p                0.00634
Trial Time:          0.02516
    a                0.00008
source: 8623
    b                0.02058
    p                0.00717
Trial Time:          0.02853
    a                0.00008
source: 71206
    b                0.02098
    p                0.00725
Trial Time:          0.02901
    a                0.00008
source: 62693
    b                0.01928
    p                0.00648
Trial Time:          0.02654
    a                0.00008
source: 7611
    b                0.01954
    p                0.00668
Trial Time:          0.02701
    a                0.00008
source: 61632
    b                0.01788
    p                0.00614
Trial Time:          0.02480
    a                0.00008
source: 25015
    b                0.02051
    p                0.00722
Trial Time:          0.02851
Average Time:        0.02707
Exiting @ tick 1379552923500 because exiting with last active thread context
