
---------- Begin Simulation Statistics ----------
final_tick                               946127547000                       # Number of ticks from beginning of simulation (restored from checkpoints and never reset)
host_inst_rate                                  91273                       # Simulator instruction rate (inst/s)
host_mem_usage                                 739140                       # Number of bytes of host memory used
host_op_rate                                    91571                       # Simulator op (including micro ops) rate (op/s)
host_seconds                                 12155.45                       # Real time elapsed on the host
host_tick_rate                               77835656                       # Simulator tick rate (ticks/s)
sim_freq                                 1000000000000                       # Frequency of simulated ticks
sim_insts                                  1109462791                       # Number of instructions simulated
sim_ops                                    1113089265                       # Number of ops (including micro ops) simulated
sim_seconds                                  0.946128                       # Number of seconds simulated
sim_ticks                                946127547000                       # Number of ticks simulated
system.cpu0.branchPred.BTBCorrect                   0                       # Number of correct BTB predictions (this stat may not work properly.
system.cpu0.branchPred.BTBHitPct            88.442031                       # BTB Hit Percentage
system.cpu0.branchPred.BTBHits              136429136                       # Number of BTB hits
system.cpu0.branchPred.BTBLookups           154258257                       # Number of BTB lookups
system.cpu0.branchPred.RASInCorrect                 0                       # Number of incorrect RAS predictions.
system.cpu0.branchPred.condIncorrect         13918724                       # Number of conditional branches incorrect
system.cpu0.branchPred.condPredicted        205515007                       # Number of conditional branches predicted
system.cpu0.branchPred.indirectHits          16876555                       # Number of indirect target hits.
system.cpu0.branchPred.indirectLookups       16955728                       # Number of indirect predictor lookups.
system.cpu0.branchPred.indirectMisses           79173                       # Number of indirect misses.
system.cpu0.branchPred.lookups              264519225                       # Number of BP lookups
system.cpu0.branchPred.usedRAS                      0                       # Number of times the RAS was used to get a target.
system.cpu0.branchPredindirectMispredicted      1850988                       # Number of mispredicted indirect branches.
system.cpu0.commit.amos                        906007                       # Number of atomic instructions committed
system.cpu0.commit.branchMispredicts          8112056                       # The number of times a branch was mispredicted
system.cpu0.commit.branches                 252658910                       # Number of branches committed
system.cpu0.commit.bw_lim_events             33942616                       # number cycles where commit BW limit reached
system.cpu0.commit.commitNonSpecStalls        2725348                       # The number of times commit has been forced to stall to communicate backwards
system.cpu0.commit.commitSquashedInsts       26066304                       # The number of squashed insts skipped by commit
system.cpu0.commit.committedInsts          1016658563                       # Number of instructions committed
system.cpu0.commit.committedOps            1017567115                       # Number of ops (including micro ops) committed
system.cpu0.commit.committed_per_cycle::samples   1679556478                       # Number of insts commited each cycle
system.cpu0.commit.committed_per_cycle::mean     0.605855                       # Number of insts commited each cycle
system.cpu0.commit.committed_per_cycle::stdev     1.400545                       # Number of insts commited each cycle
system.cpu0.commit.committed_per_cycle::underflows            0      0.00%      0.00% # Number of insts commited each cycle
system.cpu0.commit.committed_per_cycle::0   1194624418     71.13%     71.13% # Number of insts commited each cycle
system.cpu0.commit.committed_per_cycle::1    288820012     17.20%     88.32% # Number of insts commited each cycle
system.cpu0.commit.committed_per_cycle::2     72052658      4.29%     92.61% # Number of insts commited each cycle
system.cpu0.commit.committed_per_cycle::3     64852368      3.86%     96.47% # Number of insts commited each cycle
system.cpu0.commit.committed_per_cycle::4     14311285      0.85%     97.33% # Number of insts commited each cycle
system.cpu0.commit.committed_per_cycle::5      6064988      0.36%     97.69% # Number of insts commited each cycle
system.cpu0.commit.committed_per_cycle::6      3243256      0.19%     97.88% # Number of insts commited each cycle
system.cpu0.commit.committed_per_cycle::7      1644877      0.10%     97.98% # Number of insts commited each cycle
system.cpu0.commit.committed_per_cycle::8     33942616      2.02%    100.00% # Number of insts commited each cycle
system.cpu0.commit.committed_per_cycle::overflows            0      0.00%    100.00% # Number of insts commited each cycle
system.cpu0.commit.committed_per_cycle::min_value            0                       # Number of insts commited each cycle
system.cpu0.commit.committed_per_cycle::max_value            8                       # Number of insts commited each cycle
system.cpu0.commit.committed_per_cycle::total   1679556478                       # Number of insts commited each cycle
system.cpu0.commit.fp_insts                        50                       # Number of committed floating point instructions.
system.cpu0.commit.function_calls            20546222                       # Number of function calls committed.
system.cpu0.commit.int_insts                983079574                       # Number of committed integer instructions.
system.cpu0.commit.loads                    316458377                       # Number of loads committed
system.cpu0.commit.membars                    1814470                       # Number of memory barriers committed
system.cpu0.commit.op_class_0::No_OpClass      1814476      0.18%      0.18% # Class of committed instruction
system.cpu0.commit.op_class_0::IntAlu       563678580     55.39%     55.57% # Class of committed instruction
system.cpu0.commit.op_class_0::IntMult        8031684      0.79%     56.36% # Class of committed instruction
system.cpu0.commit.op_class_0::IntDiv         1811039      0.18%     56.54% # Class of committed instruction
system.cpu0.commit.op_class_0::FloatAdd             0      0.00%     56.54% # Class of committed instruction
system.cpu0.commit.op_class_0::FloatCmp             4      0.00%     56.54% # Class of committed instruction
system.cpu0.commit.op_class_0::FloatCvt            12      0.00%     56.54% # Class of committed instruction
system.cpu0.commit.op_class_0::FloatMult            0      0.00%     56.54% # Class of committed instruction
system.cpu0.commit.op_class_0::FloatMultAcc            0      0.00%     56.54% # Class of committed instruction
system.cpu0.commit.op_class_0::FloatDiv             2      0.00%     56.54% # Class of committed instruction
system.cpu0.commit.op_class_0::FloatMisc            4      0.00%     56.54% # Class of committed instruction
system.cpu0.commit.op_class_0::FloatSqrt            0      0.00%     56.54% # Class of committed instruction
system.cpu0.commit.op_class_0::SimdAdd              0      0.00%     56.54% # Class of committed instruction
system.cpu0.commit.op_class_0::SimdAddAcc            0      0.00%     56.54% # Class of committed instruction
system.cpu0.commit.op_class_0::SimdAlu              0      0.00%     56.54% # Class of committed instruction
system.cpu0.commit.op_class_0::SimdCmp              0      0.00%     56.54% # Class of committed instruction
system.cpu0.commit.op_class_0::SimdCvt              0      0.00%     56.54% # Class of committed instruction
system.cpu0.commit.op_class_0::SimdMisc             0      0.00%     56.54% # Class of committed instruction
system.cpu0.commit.op_class_0::SimdMult             0      0.00%     56.54% # Class of committed instruction
system.cpu0.commit.op_class_0::SimdMultAcc            0      0.00%     56.54% # Class of committed instruction
system.cpu0.commit.op_class_0::SimdShift            0      0.00%     56.54% # Class of committed instruction
system.cpu0.commit.op_class_0::SimdShiftAcc            0      0.00%     56.54% # Class of committed instruction
system.cpu0.commit.op_class_0::SimdDiv              0      0.00%     56.54% # Class of committed instruction
system.cpu0.commit.op_class_0::SimdSqrt             0      0.00%     56.54% # Class of committed instruction
system.cpu0.commit.op_class_0::SimdFloatAdd            0      0.00%     56.54% # Class of committed instruction
system.cpu0.commit.op_class_0::SimdFloatAlu            0      0.00%     56.54% # Class of committed instruction
system.cpu0.commit.op_class_0::SimdFloatCmp            0      0.00%     56.54% # Class of committed instruction
system.cpu0.commit.op_class_0::SimdFloatCvt            0      0.00%     56.54% # Class of committed instruction
system.cpu0.commit.op_class_0::SimdFloatDiv            0      0.00%     56.54% # Class of committed instruction
system.cpu0.commit.op_class_0::SimdFloatMisc            0      0.00%     56.54% # Class of committed instruction
system.cpu0.commit.op_class_0::SimdFloatMult            0      0.00%     56.54% # Class of committed instruction
system.cpu0.commit.op_class_0::SimdFloatMultAcc            0      0.00%     56.54% # Class of committed instruction
system.cpu0.commit.op_class_0::SimdFloatSqrt            0      0.00%     56.54% # Class of committed instruction
system.cpu0.commit.op_class_0::SimdReduceAdd            0      0.00%     56.54% # Class of committed instruction
system.cpu0.commit.op_class_0::SimdReduceAlu            0      0.00%     56.54% # Class of committed instruction
system.cpu0.commit.op_class_0::SimdReduceCmp            0      0.00%     56.54% # Class of committed instruction
system.cpu0.commit.op_class_0::SimdFloatReduceAdd            0      0.00%     56.54% # Class of committed instruction
system.cpu0.commit.op_class_0::SimdFloatReduceCmp            0      0.00%     56.54% # Class of committed instruction
system.cpu0.commit.op_class_0::SimdAes              0      0.00%     56.54% # Class of committed instruction
system.cpu0.commit.op_class_0::SimdAesMix            0      0.00%     56.54% # Class of committed instruction
system.cpu0.commit.op_class_0::SimdSha1Hash            0      0.00%     56.54% # Class of committed instruction
system.cpu0.commit.op_class_0::SimdSha1Hash2            0      0.00%     56.54% # Class of committed instruction
system.cpu0.commit.op_class_0::SimdSha256Hash            0      0.00%     56.54% # Class of committed instruction
system.cpu0.commit.op_class_0::SimdSha256Hash2            0      0.00%     56.54% # Class of committed instruction
system.cpu0.commit.op_class_0::SimdShaSigma2            0      0.00%     56.54% # Class of committed instruction
system.cpu0.commit.op_class_0::SimdShaSigma3            0      0.00%     56.54% # Class of committed instruction
system.cpu0.commit.op_class_0::SimdPredAlu            0      0.00%     56.54% # Class of committed instruction
system.cpu0.commit.op_class_0::MemRead      317364376     31.19%     87.73% # Class of committed instruction
system.cpu0.commit.op_class_0::MemWrite     124866910     12.27%    100.00% # Class of committed instruction
system.cpu0.commit.op_class_0::FloatMemRead            8      0.00%    100.00% # Class of committed instruction
system.cpu0.commit.op_class_0::FloatMemWrite           20      0.00%    100.00% # Class of committed instruction
system.cpu0.commit.op_class_0::IprAccess            0      0.00%    100.00% # Class of committed instruction
system.cpu0.commit.op_class_0::InstPrefetch            0      0.00%    100.00% # Class of committed instruction
system.cpu0.commit.op_class_0::total       1017567115                       # Class of committed instruction
system.cpu0.commit.refs                     442231314                       # Number of memory references committed
system.cpu0.commit.swp_count                        0                       # Number of s/w prefetches committed
system.cpu0.commit.vec_insts                        0                       # Number of committed Vector instructions.
system.cpu0.committedInsts                 1016658563                       # Number of Instructions Simulated
system.cpu0.committedOps                   1017567115                       # Number of Ops (including micro ops) Simulated
system.cpu0.cpi                              1.844529                       # CPI: Cycles Per Instruction
system.cpu0.cpi_total                        1.844529                       # CPI: Total CPI of All Threads
system.cpu0.decode.BlockedCycles            184857846                       # Number of cycles decode is blocked
system.cpu0.decode.BranchMispred              5810795                       # Number of times decode detected a branch misprediction
system.cpu0.decode.BranchResolved           132083458                       # Number of times decode resolved a branch
system.cpu0.decode.DecodedInsts            1063054931                       # Number of instructions handled by decode
system.cpu0.decode.IdleCycles               743820367                       # Number of cycles decode is idle
system.cpu0.decode.RunCycles                749078214                       # Number of cycles decode is running
system.cpu0.decode.SquashCycles               8121506                       # Number of cycles decode is squashing
system.cpu0.decode.SquashedInsts              4247039                       # Number of squashed instructions handled by decode
system.cpu0.decode.UnblockCycles              2563538                       # Number of cycles decode is unblocking
system.cpu0.dtb.accesses                            0                       # DTB accesses
system.cpu0.dtb.hits                                0                       # DTB hits
system.cpu0.dtb.misses                              0                       # DTB misses
system.cpu0.dtb.read_accesses                       0                       # DTB read accesses
system.cpu0.dtb.read_hits                           0                       # DTB read hits
system.cpu0.dtb.read_misses                         0                       # DTB read misses
system.cpu0.dtb.write_accesses                      0                       # DTB write accesses
system.cpu0.dtb.write_hits                          0                       # DTB write hits
system.cpu0.dtb.write_misses                        0                       # DTB write misses
system.cpu0.fetch.Branches                  264519225                       # Number of branches that fetch encountered
system.cpu0.fetch.CacheLines                173222986                       # Number of cache lines fetched
system.cpu0.fetch.Cycles                    937327346                       # Number of cycles fetch has run and was not squashing or blocked
system.cpu0.fetch.IcacheSquashes              5738463                       # Number of outstanding Icache misses that were squashed
system.cpu0.fetch.IcacheWaitRetryStallCycles           56                       # Number of stall cycles due to full MSHR
system.cpu0.fetch.Insts                    1072720155                       # Number of instructions fetch has processed
system.cpu0.fetch.MiscStallCycles                  12                       # Number of cycles fetch has spent waiting on interrupts, or bad addresses, or out of MSHRs
system.cpu0.fetch.PendingTrapStallCycles           30                       # Number of stall cycles due to pending traps
system.cpu0.fetch.SquashCycles               27856356                       # Number of cycles fetch has spent squashing
system.cpu0.fetch.branchRate                 0.141058                       # Number of branch fetches per cycle
system.cpu0.fetch.icacheStallCycles         737185849                       # Number of cycles fetch is stalled on an Icache miss
system.cpu0.fetch.predictedBranches         153305691                       # Number of branches that fetch has predicted taken
system.cpu0.fetch.rate                       0.572039                       # Number of inst fetches per cycle
system.cpu0.fetch.rateDist::samples        1688441471                       # Number of instructions fetched each cycle (Total)
system.cpu0.fetch.rateDist::mean             0.635870                       # Number of instructions fetched each cycle (Total)
system.cpu0.fetch.rateDist::stdev            0.900557                       # Number of instructions fetched each cycle (Total)
system.cpu0.fetch.rateDist::underflows              0      0.00%      0.00% # Number of instructions fetched each cycle (Total)
system.cpu0.fetch.rateDist::0               919849071     54.48%     54.48% # Number of instructions fetched each cycle (Total)
system.cpu0.fetch.rateDist::1               577940405     34.23%     88.71% # Number of instructions fetched each cycle (Total)
system.cpu0.fetch.rateDist::2               111845935      6.62%     95.33% # Number of instructions fetched each cycle (Total)
system.cpu0.fetch.rateDist::3                60443385      3.58%     98.91% # Number of instructions fetched each cycle (Total)
system.cpu0.fetch.rateDist::4                10610284      0.63%     99.54% # Number of instructions fetched each cycle (Total)
system.cpu0.fetch.rateDist::5                 3903817      0.23%     99.77% # Number of instructions fetched each cycle (Total)
system.cpu0.fetch.rateDist::6                  134493      0.01%     99.78% # Number of instructions fetched each cycle (Total)
system.cpu0.fetch.rateDist::7                 1813118      0.11%     99.89% # Number of instructions fetched each cycle (Total)
system.cpu0.fetch.rateDist::8                 1900963      0.11%    100.00% # Number of instructions fetched each cycle (Total)
system.cpu0.fetch.rateDist::overflows               0      0.00%    100.00% # Number of instructions fetched each cycle (Total)
system.cpu0.fetch.rateDist::min_value               0                       # Number of instructions fetched each cycle (Total)
system.cpu0.fetch.rateDist::max_value               8                       # Number of instructions fetched each cycle (Total)
system.cpu0.fetch.rateDist::total          1688441471                       # Number of instructions fetched each cycle (Total)
system.cpu0.fp_regfile_reads                       54                       # number of floating regfile reads
system.cpu0.fp_regfile_writes                      25                       # number of floating regfile writes
system.cpu0.idleCycles                      186814570                       # Total number of cycles that the CPU has spent unscheduled due to idling
system.cpu0.iew.branchMispredicts             8233200                       # Number of branch mispredicts detected at execute
system.cpu0.iew.exec_branches               255023393                       # Number of branches executed
system.cpu0.iew.exec_nop                            0                       # number of nop insts executed
system.cpu0.iew.exec_rate                    0.554630                       # Inst execution rate
system.cpu0.iew.exec_refs                   457886167                       # number of memory reference insts executed
system.cpu0.iew.exec_stores                 127336912                       # Number of stores executed
system.cpu0.iew.exec_swp                            0                       # number of swp insts executed
system.cpu0.iew.iewBlockCycles              152243723                       # Number of cycles IEW is blocking
system.cpu0.iew.iewDispLoadInsts            329581401                       # Number of dispatched load instructions
system.cpu0.iew.iewDispNonSpecInsts            911403                       # Number of dispatched non-speculative instructions
system.cpu0.iew.iewDispSquashedInsts          5024491                       # Number of squashed instructions skipped by dispatch
system.cpu0.iew.iewDispStoreInsts           128157553                       # Number of dispatched store instructions
system.cpu0.iew.iewDispatchedInsts         1043622307                       # Number of instructions dispatched to IQ
system.cpu0.iew.iewExecLoadInsts            330549255                       # Number of load instructions executed
system.cpu0.iew.iewExecSquashedInsts          4648369                       # Number of squashed instructions skipped in execute
system.cpu0.iew.iewExecutedInsts           1040073947                       # Number of executed instructions
system.cpu0.iew.iewIQFullEvents                909728                       # Number of times the IQ has become full, causing a stall
system.cpu0.iew.iewIdleCycles                       0                       # Number of cycles IEW is idle
system.cpu0.iew.iewLSQFullEvents              3428477                       # Number of times the LSQ has become full, causing a stall
system.cpu0.iew.iewSquashCycles               8121506                       # Number of cycles IEW is squashing
system.cpu0.iew.iewUnblockCycles              5279366                       # Number of cycles IEW is unblocking
system.cpu0.iew.lsq.thread0.blockedLoads            0                       # Number of blocked loads due to partial load-store forwarding
system.cpu0.iew.lsq.thread0.cacheBlocked       103692                       # Number of times an access to memory failed due to the cache being blocked
system.cpu0.iew.lsq.thread0.forwLoads        19779635                       # Number of loads that had data forwarded from stores
system.cpu0.iew.lsq.thread0.ignoredResponses        12857                       # Number of memory responses ignored because the instruction is squashed
system.cpu0.iew.lsq.thread0.invAddrLoads            0                       # Number of loads ignored due to an invalid address
system.cpu0.iew.lsq.thread0.invAddrSwpfs            0                       # Number of software prefetches ignored due to an invalid address
system.cpu0.iew.lsq.thread0.memOrderViolation         9696                       # Number of memory ordering violations
system.cpu0.iew.lsq.thread0.rescheduledLoads      3663242                       # Number of loads that were rescheduled
system.cpu0.iew.lsq.thread0.squashedLoads     13123024                       # Number of loads squashed
system.cpu0.iew.lsq.thread0.squashedStores      2384605                       # Number of stores squashed
system.cpu0.iew.memOrderViolationEvents          9696                       # Number of memory order violations
system.cpu0.iew.predictedNotTakenIncorrect      1140866                       # Number of branches that were predicted not taken incorrectly
system.cpu0.iew.predictedTakenIncorrect       7092334                       # Number of branches that were predicted taken incorrectly
system.cpu0.iew.wb_consumers                456344308                       # num instructions consuming a value
system.cpu0.iew.wb_count                   1030656791                       # cumulative count of insts written-back
system.cpu0.iew.wb_fanout                    0.827608                       # average fanout of values written-back
system.cpu0.iew.wb_producers                377674086                       # num instructions producing a value
system.cpu0.iew.wb_rate                      0.549609                       # insts written-back per cycle
system.cpu0.iew.wb_sent                    1030734498                       # cumulative count of insts sent to commit
system.cpu0.int_regfile_reads              1273990190                       # number of integer regfile reads
system.cpu0.int_regfile_writes              656899261                       # number of integer regfile writes
system.cpu0.ipc                              0.542144                       # IPC: Instructions Per Cycle
system.cpu0.ipc_total                        0.542144                       # IPC: Total IPC of All Threads
system.cpu0.iq.FU_type_0::No_OpClass          1816110      0.17%      0.17% # Type of FU issued
system.cpu0.iq.FU_type_0::IntAlu            572397502     54.79%     54.96% # Type of FU issued
system.cpu0.iq.FU_type_0::IntMult             8140349      0.78%     55.74% # Type of FU issued
system.cpu0.iq.FU_type_0::IntDiv              1811749      0.17%     55.92% # Type of FU issued
system.cpu0.iq.FU_type_0::FloatAdd                  0      0.00%     55.92% # Type of FU issued
system.cpu0.iq.FU_type_0::FloatCmp                  4      0.00%     55.92% # Type of FU issued
system.cpu0.iq.FU_type_0::FloatCvt                 12      0.00%     55.92% # Type of FU issued
system.cpu0.iq.FU_type_0::FloatMult                 0      0.00%     55.92% # Type of FU issued
system.cpu0.iq.FU_type_0::FloatMultAcc              2      0.00%     55.92% # Type of FU issued
system.cpu0.iq.FU_type_0::FloatDiv                  2      0.00%     55.92% # Type of FU issued
system.cpu0.iq.FU_type_0::FloatMisc                 4      0.00%     55.92% # Type of FU issued
system.cpu0.iq.FU_type_0::FloatSqrt                 0      0.00%     55.92% # Type of FU issued
system.cpu0.iq.FU_type_0::SimdAdd                   0      0.00%     55.92% # Type of FU issued
system.cpu0.iq.FU_type_0::SimdAddAcc                0      0.00%     55.92% # Type of FU issued
system.cpu0.iq.FU_type_0::SimdAlu                   0      0.00%     55.92% # Type of FU issued
system.cpu0.iq.FU_type_0::SimdCmp                   0      0.00%     55.92% # Type of FU issued
system.cpu0.iq.FU_type_0::SimdCvt                   0      0.00%     55.92% # Type of FU issued
system.cpu0.iq.FU_type_0::SimdMisc                  0      0.00%     55.92% # Type of FU issued
system.cpu0.iq.FU_type_0::SimdMult                  0      0.00%     55.92% # Type of FU issued
system.cpu0.iq.FU_type_0::SimdMultAcc               0      0.00%     55.92% # Type of FU issued
system.cpu0.iq.FU_type_0::SimdShift                 0      0.00%     55.92% # Type of FU issued
system.cpu0.iq.FU_type_0::SimdShiftAcc              0      0.00%     55.92% # Type of FU issued
system.cpu0.iq.FU_type_0::SimdDiv                   0      0.00%     55.92% # Type of FU issued
system.cpu0.iq.FU_type_0::SimdSqrt                  0      0.00%     55.92% # Type of FU issued
system.cpu0.iq.FU_type_0::SimdFloatAdd              0      0.00%     55.92% # Type of FU issued
system.cpu0.iq.FU_type_0::SimdFloatAlu              0      0.00%     55.92% # Type of FU issued
system.cpu0.iq.FU_type_0::SimdFloatCmp              0      0.00%     55.92% # Type of FU issued
system.cpu0.iq.FU_type_0::SimdFloatCvt              0      0.00%     55.92% # Type of FU issued
system.cpu0.iq.FU_type_0::SimdFloatDiv              0      0.00%     55.92% # Type of FU issued
system.cpu0.iq.FU_type_0::SimdFloatMisc             0      0.00%     55.92% # Type of FU issued
system.cpu0.iq.FU_type_0::SimdFloatMult             0      0.00%     55.92% # Type of FU issued
system.cpu0.iq.FU_type_0::SimdFloatMultAcc            0      0.00%     55.92% # Type of FU issued
system.cpu0.iq.FU_type_0::SimdFloatSqrt             0      0.00%     55.92% # Type of FU issued
system.cpu0.iq.FU_type_0::SimdReduceAdd             0      0.00%     55.92% # Type of FU issued
system.cpu0.iq.FU_type_0::SimdReduceAlu             0      0.00%     55.92% # Type of FU issued
system.cpu0.iq.FU_type_0::SimdReduceCmp             0      0.00%     55.92% # Type of FU issued
system.cpu0.iq.FU_type_0::SimdFloatReduceAdd            0      0.00%     55.92% # Type of FU issued
system.cpu0.iq.FU_type_0::SimdFloatReduceCmp            0      0.00%     55.92% # Type of FU issued
system.cpu0.iq.FU_type_0::SimdAes                   0      0.00%     55.92% # Type of FU issued
system.cpu0.iq.FU_type_0::SimdAesMix                0      0.00%     55.92% # Type of FU issued
system.cpu0.iq.FU_type_0::SimdSha1Hash              0      0.00%     55.92% # Type of FU issued
system.cpu0.iq.FU_type_0::SimdSha1Hash2             0      0.00%     55.92% # Type of FU issued
system.cpu0.iq.FU_type_0::SimdSha256Hash            0      0.00%     55.92% # Type of FU issued
system.cpu0.iq.FU_type_0::SimdSha256Hash2            0      0.00%     55.92% # Type of FU issued
system.cpu0.iq.FU_type_0::SimdShaSigma2             0      0.00%     55.92% # Type of FU issued
system.cpu0.iq.FU_type_0::SimdShaSigma3             0      0.00%     55.92% # Type of FU issued
system.cpu0.iq.FU_type_0::SimdPredAlu               0      0.00%     55.92% # Type of FU issued
system.cpu0.iq.FU_type_0::MemRead           333883657     31.96%     87.87% # Type of FU issued
system.cpu0.iq.FU_type_0::MemWrite          126672893     12.13%    100.00% # Type of FU issued
system.cpu0.iq.FU_type_0::FloatMemRead              9      0.00%    100.00% # Type of FU issued
system.cpu0.iq.FU_type_0::FloatMemWrite            24      0.00%    100.00% # Type of FU issued
system.cpu0.iq.FU_type_0::IprAccess                 0      0.00%    100.00% # Type of FU issued
system.cpu0.iq.FU_type_0::InstPrefetch              0      0.00%    100.00% # Type of FU issued
system.cpu0.iq.FU_type_0::total            1044722317                       # Type of FU issued
system.cpu0.iq.fp_alu_accesses                     59                       # Number of floating point alu accesses
system.cpu0.iq.fp_inst_queue_reads                116                       # Number of floating instruction queue reads
system.cpu0.iq.fp_inst_queue_wakeup_accesses           57                       # Number of floating instruction queue wakeup accesses
system.cpu0.iq.fp_inst_queue_writes                64                       # Number of floating instruction queue writes
system.cpu0.iq.fu_busy_cnt                    1277784                       # FU busy when requested
system.cpu0.iq.fu_busy_rate                  0.001223                       # FU busy rate (busy events/executed inst)
system.cpu0.iq.fu_full::No_OpClass                  0      0.00%      0.00% # attempts to use FU when none available
system.cpu0.iq.fu_full::IntAlu                 238469     18.66%     18.66% # attempts to use FU when none available
system.cpu0.iq.fu_full::IntMult                     0      0.00%     18.66% # attempts to use FU when none available
system.cpu0.iq.fu_full::IntDiv                      0      0.00%     18.66% # attempts to use FU when none available
system.cpu0.iq.fu_full::FloatAdd                    0      0.00%     18.66% # attempts to use FU when none available
system.cpu0.iq.fu_full::FloatCmp                    0      0.00%     18.66% # attempts to use FU when none available
system.cpu0.iq.fu_full::FloatCvt                    0      0.00%     18.66% # attempts to use FU when none available
system.cpu0.iq.fu_full::FloatMult                   0      0.00%     18.66% # attempts to use FU when none available
system.cpu0.iq.fu_full::FloatMultAcc                0      0.00%     18.66% # attempts to use FU when none available
system.cpu0.iq.fu_full::FloatDiv                    0      0.00%     18.66% # attempts to use FU when none available
system.cpu0.iq.fu_full::FloatMisc                   0      0.00%     18.66% # attempts to use FU when none available
system.cpu0.iq.fu_full::FloatSqrt                   0      0.00%     18.66% # attempts to use FU when none available
system.cpu0.iq.fu_full::SimdAdd                     0      0.00%     18.66% # attempts to use FU when none available
system.cpu0.iq.fu_full::SimdAddAcc                  0      0.00%     18.66% # attempts to use FU when none available
system.cpu0.iq.fu_full::SimdAlu                     0      0.00%     18.66% # attempts to use FU when none available
system.cpu0.iq.fu_full::SimdCmp                     0      0.00%     18.66% # attempts to use FU when none available
system.cpu0.iq.fu_full::SimdCvt                     0      0.00%     18.66% # attempts to use FU when none available
system.cpu0.iq.fu_full::SimdMisc                    0      0.00%     18.66% # attempts to use FU when none available
system.cpu0.iq.fu_full::SimdMult                    0      0.00%     18.66% # attempts to use FU when none available
system.cpu0.iq.fu_full::SimdMultAcc                 0      0.00%     18.66% # attempts to use FU when none available
system.cpu0.iq.fu_full::SimdShift                   0      0.00%     18.66% # attempts to use FU when none available
system.cpu0.iq.fu_full::SimdShiftAcc                0      0.00%     18.66% # attempts to use FU when none available
system.cpu0.iq.fu_full::SimdDiv                     0      0.00%     18.66% # attempts to use FU when none available
system.cpu0.iq.fu_full::SimdSqrt                    0      0.00%     18.66% # attempts to use FU when none available
system.cpu0.iq.fu_full::SimdFloatAdd                0      0.00%     18.66% # attempts to use FU when none available
system.cpu0.iq.fu_full::SimdFloatAlu                0      0.00%     18.66% # attempts to use FU when none available
system.cpu0.iq.fu_full::SimdFloatCmp                0      0.00%     18.66% # attempts to use FU when none available
system.cpu0.iq.fu_full::SimdFloatCvt                0      0.00%     18.66% # attempts to use FU when none available
system.cpu0.iq.fu_full::SimdFloatDiv                0      0.00%     18.66% # attempts to use FU when none available
system.cpu0.iq.fu_full::SimdFloatMisc               0      0.00%     18.66% # attempts to use FU when none available
system.cpu0.iq.fu_full::SimdFloatMult               0      0.00%     18.66% # attempts to use FU when none available
system.cpu0.iq.fu_full::SimdFloatMultAcc            0      0.00%     18.66% # attempts to use FU when none available
system.cpu0.iq.fu_full::SimdFloatSqrt               0      0.00%     18.66% # attempts to use FU when none available
system.cpu0.iq.fu_full::SimdReduceAdd               0      0.00%     18.66% # attempts to use FU when none available
system.cpu0.iq.fu_full::SimdReduceAlu               0      0.00%     18.66% # attempts to use FU when none available
system.cpu0.iq.fu_full::SimdReduceCmp               0      0.00%     18.66% # attempts to use FU when none available
system.cpu0.iq.fu_full::SimdFloatReduceAdd            0      0.00%     18.66% # attempts to use FU when none available
system.cpu0.iq.fu_full::SimdFloatReduceCmp            0      0.00%     18.66% # attempts to use FU when none available
system.cpu0.iq.fu_full::SimdAes                     0      0.00%     18.66% # attempts to use FU when none available
system.cpu0.iq.fu_full::SimdAesMix                  0      0.00%     18.66% # attempts to use FU when none available
system.cpu0.iq.fu_full::SimdSha1Hash                0      0.00%     18.66% # attempts to use FU when none available
system.cpu0.iq.fu_full::SimdSha1Hash2               0      0.00%     18.66% # attempts to use FU when none available
system.cpu0.iq.fu_full::SimdSha256Hash              0      0.00%     18.66% # attempts to use FU when none available
system.cpu0.iq.fu_full::SimdSha256Hash2             0      0.00%     18.66% # attempts to use FU when none available
system.cpu0.iq.fu_full::SimdShaSigma2               0      0.00%     18.66% # attempts to use FU when none available
system.cpu0.iq.fu_full::SimdShaSigma3               0      0.00%     18.66% # attempts to use FU when none available
system.cpu0.iq.fu_full::SimdPredAlu                 0      0.00%     18.66% # attempts to use FU when none available
system.cpu0.iq.fu_full::MemRead                911085     71.30%     89.96% # attempts to use FU when none available
system.cpu0.iq.fu_full::MemWrite               128228     10.04%    100.00% # attempts to use FU when none available
system.cpu0.iq.fu_full::FloatMemRead                0      0.00%    100.00% # attempts to use FU when none available
system.cpu0.iq.fu_full::FloatMemWrite               2      0.00%    100.00% # attempts to use FU when none available
system.cpu0.iq.fu_full::IprAccess                   0      0.00%    100.00% # attempts to use FU when none available
system.cpu0.iq.fu_full::InstPrefetch                0      0.00%    100.00% # attempts to use FU when none available
system.cpu0.iq.int_alu_accesses            1044183932                       # Number of integer alu accesses
system.cpu0.iq.int_inst_queue_reads        3779241486                       # Number of integer instruction queue reads
system.cpu0.iq.int_inst_queue_wakeup_accesses   1030656734                       # Number of integer instruction queue wakeup accesses
system.cpu0.iq.int_inst_queue_writes       1069685999                       # Number of integer instruction queue writes
system.cpu0.iq.iqInstsAdded                1040896268                       # Number of instructions added to the IQ (excludes non-spec)
system.cpu0.iq.iqInstsIssued               1044722317                       # Number of instructions issued
system.cpu0.iq.iqNonSpecInstsAdded            2726039                       # Number of non-speculative instructions added to the IQ
system.cpu0.iq.iqSquashedInstsExamined       26055107                       # Number of squashed instructions iterated over during squash; mainly for profiling
system.cpu0.iq.iqSquashedInstsIssued            77714                       # Number of squashed instructions issued
system.cpu0.iq.iqSquashedNonSpecRemoved           691                       # Number of squashed non-spec instructions that were removed
system.cpu0.iq.iqSquashedOperandsExamined     13180114                       # Number of squashed operands that are examined and possibly removed from graph
system.cpu0.iq.issued_per_cycle::samples   1688441471                       # Number of insts issued each cycle
system.cpu0.iq.issued_per_cycle::mean        0.618750                       # Number of insts issued each cycle
system.cpu0.iq.issued_per_cycle::stdev       0.849001                       # Number of insts issued each cycle
system.cpu0.iq.issued_per_cycle::underflows            0      0.00%      0.00% # Number of insts issued each cycle
system.cpu0.iq.issued_per_cycle::0          933993979     55.32%     55.32% # Number of insts issued each cycle
system.cpu0.iq.issued_per_cycle::1          547796491     32.44%     87.76% # Number of insts issued each cycle
system.cpu0.iq.issued_per_cycle::2          145384463      8.61%     96.37% # Number of insts issued each cycle
system.cpu0.iq.issued_per_cycle::3           47456877      2.81%     99.18% # Number of insts issued each cycle
system.cpu0.iq.issued_per_cycle::4            8712915      0.52%     99.70% # Number of insts issued each cycle
system.cpu0.iq.issued_per_cycle::5            2624593      0.16%     99.85% # Number of insts issued each cycle
system.cpu0.iq.issued_per_cycle::6            1626526      0.10%     99.95% # Number of insts issued each cycle
system.cpu0.iq.issued_per_cycle::7             712528      0.04%     99.99% # Number of insts issued each cycle
system.cpu0.iq.issued_per_cycle::8             133099      0.01%    100.00% # Number of insts issued each cycle
system.cpu0.iq.issued_per_cycle::overflows            0      0.00%    100.00% # Number of insts issued each cycle
system.cpu0.iq.issued_per_cycle::min_value            0                       # Number of insts issued each cycle
system.cpu0.iq.issued_per_cycle::max_value            8                       # Number of insts issued each cycle
system.cpu0.iq.issued_per_cycle::total     1688441471                       # Number of insts issued each cycle
system.cpu0.iq.rate                          0.557109                       # Inst issue rate
system.cpu0.iq.vec_alu_accesses                     0                       # Number of vector alu accesses
system.cpu0.iq.vec_inst_queue_reads                 0                       # Number of vector instruction queue reads
system.cpu0.iq.vec_inst_queue_wakeup_accesses            0                       # Number of vector instruction queue wakeup accesses
system.cpu0.iq.vec_inst_queue_writes                0                       # Number of vector instruction queue writes
system.cpu0.itb.accesses                            0                       # DTB accesses
system.cpu0.itb.hits                                0                       # DTB hits
system.cpu0.itb.misses                              0                       # DTB misses
system.cpu0.itb.read_accesses                       0                       # DTB read accesses
system.cpu0.itb.read_hits                           0                       # DTB read hits
system.cpu0.itb.read_misses                         0                       # DTB read misses
system.cpu0.itb.write_accesses                      0                       # DTB write accesses
system.cpu0.itb.write_hits                          0                       # DTB write hits
system.cpu0.itb.write_misses                        0                       # DTB write misses
system.cpu0.memDep0.conflictingLoads         14760124                       # Number of conflicting loads.
system.cpu0.memDep0.conflictingStores         1043267                       # Number of conflicting stores.
system.cpu0.memDep0.insertedLoads           329581401                       # Number of loads inserted to the mem dependence unit.
system.cpu0.memDep0.insertedStores          128157553                       # Number of stores inserted to the mem dependence unit.
system.cpu0.misc_regfile_reads                   1659                       # number of misc regfile reads
system.cpu0.misc_regfile_writes                    22                       # number of misc regfile writes
system.cpu0.numCycles                      1875256041                       # number of cpu cycles simulated
system.cpu0.numWorkItemsCompleted                   0                       # number of work items this cpu completed
system.cpu0.numWorkItemsStarted                     0                       # number of work items this cpu started
system.cpu0.quiesceCycles                    16999065                       # Total number of cycles that CPU has spent quiesced or waiting for an interrupt
system.cpu0.rename.BlockCycles              165145751                       # Number of cycles rename is blocking
system.cpu0.rename.CommittedMaps            647591311                       # Number of HB maps that are committed
system.cpu0.rename.IQFullEvents               6210589                       # Number of times rename has blocked due to IQ full
system.cpu0.rename.IdleCycles               752551115                       # Number of cycles rename is idle
system.cpu0.rename.LQFullEvents               7016112                       # Number of times rename has blocked due to LQ full
system.cpu0.rename.ROBFullEvents                23706                       # Number of times rename has blocked due to ROB full
system.cpu0.rename.RenameLookups           1293903054                       # Number of register rename lookups that rename has made
system.cpu0.rename.RenamedInsts            1055614250                       # Number of instructions processed by rename
system.cpu0.rename.RenamedOperands          676819314                       # Number of destination operands rename has renamed
system.cpu0.rename.RunCycles                742362691                       # Number of cycles rename is running
system.cpu0.rename.SQFullEvents               6535542                       # Number of times rename has blocked due to SQ full
system.cpu0.rename.SquashCycles               8121506                       # Number of cycles rename is squashing
system.cpu0.rename.UnblockCycles             19915121                       # Number of cycles rename is unblocking
system.cpu0.rename.UndoneMaps                29227936                       # Number of HB maps that are undone due to squashing
system.cpu0.rename.fp_rename_lookups               54                       # Number of floating rename lookups
system.cpu0.rename.int_rename_lookups      1293903000                       # Number of integer rename lookups
system.cpu0.rename.serializeStallCycles        345287                       # count of cycles rename stalled for serializing inst
system.cpu0.rename.serializingInsts              5066                       # count of serializing insts renamed
system.cpu0.rename.skidInsts                 13533211                       # count of insts added to the skid buffer
system.cpu0.rename.tempSerializingInsts          5066                       # count of temporary serializing insts renamed
system.cpu0.rob.rob_reads                  2689226299                       # The number of ROB reads
system.cpu0.rob.rob_writes                 2096162248                       # The number of ROB writes
system.cpu0.timesIdled                       26490326                       # Number of times that the entire CPU went into an idle state and unscheduled itself
system.cpu0.workload.numSyscalls                 1624                       # Number of system calls
system.cpu1.branchPred.BTBCorrect                   0                       # Number of correct BTB predictions (this stat may not work properly.
system.cpu1.branchPred.BTBHitPct            82.799345                       # BTB Hit Percentage
system.cpu1.branchPred.BTBHits                5852237                       # Number of BTB hits
system.cpu1.branchPred.BTBLookups             7067975                       # Number of BTB lookups
system.cpu1.branchPred.RASInCorrect                 0                       # Number of incorrect RAS predictions.
system.cpu1.branchPred.condIncorrect           774503                       # Number of conditional branches incorrect
system.cpu1.branchPred.condPredicted          9664111                       # Number of conditional branches predicted
system.cpu1.branchPred.indirectHits            224679                       # Number of indirect target hits.
system.cpu1.branchPred.indirectLookups         234379                       # Number of indirect predictor lookups.
system.cpu1.branchPred.indirectMisses            9700                       # Number of indirect misses.
system.cpu1.branchPred.lookups               10951925                       # Number of BP lookups
system.cpu1.branchPred.usedRAS                      0                       # Number of times the RAS was used to get a target.
system.cpu1.branchPredindirectMispredicted        13502                       # Number of mispredicted indirect branches.
system.cpu1.commit.amos                        905800                       # Number of atomic instructions committed
system.cpu1.commit.branchMispredicts           631911                       # The number of times a branch was mispredicted
system.cpu1.commit.branches                   8767616                       # Number of branches committed
system.cpu1.commit.bw_lim_events               791371                       # number cycles where commit BW limit reached
system.cpu1.commit.commitNonSpecStalls        2718043                       # The number of times commit has been forced to stall to communicate backwards
system.cpu1.commit.commitSquashedInsts        4436814                       # The number of squashed insts skipped by commit
system.cpu1.commit.committedInsts            37205284                       # Number of instructions committed
system.cpu1.commit.committedOps              38111252                       # Number of ops (including micro ops) committed
system.cpu1.commit.committed_per_cycle::samples    208505698                       # Number of insts commited each cycle
system.cpu1.commit.committed_per_cycle::mean     0.182783                       # Number of insts commited each cycle
system.cpu1.commit.committed_per_cycle::stdev     0.823990                       # Number of insts commited each cycle
system.cpu1.commit.committed_per_cycle::underflows            0      0.00%      0.00% # Number of insts commited each cycle
system.cpu1.commit.committed_per_cycle::0    192378915     92.27%     92.27% # Number of insts commited each cycle
system.cpu1.commit.committed_per_cycle::1      7855254      3.77%     96.03% # Number of insts commited each cycle
system.cpu1.commit.committed_per_cycle::2      2831419      1.36%     97.39% # Number of insts commited each cycle
system.cpu1.commit.committed_per_cycle::3      2563619      1.23%     98.62% # Number of insts commited each cycle
system.cpu1.commit.committed_per_cycle::4       881258      0.42%     99.04% # Number of insts commited each cycle
system.cpu1.commit.committed_per_cycle::5       245994      0.12%     99.16% # Number of insts commited each cycle
system.cpu1.commit.committed_per_cycle::6       888743      0.43%     99.59% # Number of insts commited each cycle
system.cpu1.commit.committed_per_cycle::7        69125      0.03%     99.62% # Number of insts commited each cycle
system.cpu1.commit.committed_per_cycle::8       791371      0.38%    100.00% # Number of insts commited each cycle
system.cpu1.commit.committed_per_cycle::overflows            0      0.00%    100.00% # Number of insts commited each cycle
system.cpu1.commit.committed_per_cycle::min_value            0                       # Number of insts commited each cycle
system.cpu1.commit.committed_per_cycle::max_value            8                       # Number of insts commited each cycle
system.cpu1.commit.committed_per_cycle::total    208505698                       # Number of insts commited each cycle
system.cpu1.commit.fp_insts                        12                       # Number of committed floating point instructions.
system.cpu1.commit.function_calls              377784                       # Number of function calls committed.
system.cpu1.commit.int_insts                 35820788                       # Number of committed integer instructions.
system.cpu1.commit.loads                     10299957                       # Number of loads committed
system.cpu1.commit.membars                    1811644                       # Number of memory barriers committed
system.cpu1.commit.op_class_0::No_OpClass      1811644      4.75%      4.75% # Class of committed instruction
system.cpu1.commit.op_class_0::IntAlu        22367009     58.69%     63.44% # Class of committed instruction
system.cpu1.commit.op_class_0::IntMult             43      0.00%     63.44% # Class of committed instruction
system.cpu1.commit.op_class_0::IntDiv              86      0.00%     63.44% # Class of committed instruction
system.cpu1.commit.op_class_0::FloatAdd             0      0.00%     63.44% # Class of committed instruction
system.cpu1.commit.op_class_0::FloatCmp             0      0.00%     63.44% # Class of committed instruction
system.cpu1.commit.op_class_0::FloatCvt             0      0.00%     63.44% # Class of committed instruction
system.cpu1.commit.op_class_0::FloatMult            0      0.00%     63.44% # Class of committed instruction
system.cpu1.commit.op_class_0::FloatMultAcc            0      0.00%     63.44% # Class of committed instruction
system.cpu1.commit.op_class_0::FloatDiv             0      0.00%     63.44% # Class of committed instruction
system.cpu1.commit.op_class_0::FloatMisc            0      0.00%     63.44% # Class of committed instruction
system.cpu1.commit.op_class_0::FloatSqrt            0      0.00%     63.44% # Class of committed instruction
system.cpu1.commit.op_class_0::SimdAdd              0      0.00%     63.44% # Class of committed instruction
system.cpu1.commit.op_class_0::SimdAddAcc            0      0.00%     63.44% # Class of committed instruction
system.cpu1.commit.op_class_0::SimdAlu              0      0.00%     63.44% # Class of committed instruction
system.cpu1.commit.op_class_0::SimdCmp              0      0.00%     63.44% # Class of committed instruction
system.cpu1.commit.op_class_0::SimdCvt              0      0.00%     63.44% # Class of committed instruction
system.cpu1.commit.op_class_0::SimdMisc             0      0.00%     63.44% # Class of committed instruction
system.cpu1.commit.op_class_0::SimdMult             0      0.00%     63.44% # Class of committed instruction
system.cpu1.commit.op_class_0::SimdMultAcc            0      0.00%     63.44% # Class of committed instruction
system.cpu1.commit.op_class_0::SimdShift            0      0.00%     63.44% # Class of committed instruction
system.cpu1.commit.op_class_0::SimdShiftAcc            0      0.00%     63.44% # Class of committed instruction
system.cpu1.commit.op_class_0::SimdDiv              0      0.00%     63.44% # Class of committed instruction
system.cpu1.commit.op_class_0::SimdSqrt             0      0.00%     63.44% # Class of committed instruction
system.cpu1.commit.op_class_0::SimdFloatAdd            0      0.00%     63.44% # Class of committed instruction
system.cpu1.commit.op_class_0::SimdFloatAlu            0      0.00%     63.44% # Class of committed instruction
system.cpu1.commit.op_class_0::SimdFloatCmp            0      0.00%     63.44% # Class of committed instruction
system.cpu1.commit.op_class_0::SimdFloatCvt            0      0.00%     63.44% # Class of committed instruction
system.cpu1.commit.op_class_0::SimdFloatDiv            0      0.00%     63.44% # Class of committed instruction
system.cpu1.commit.op_class_0::SimdFloatMisc            0      0.00%     63.44% # Class of committed instruction
system.cpu1.commit.op_class_0::SimdFloatMult            0      0.00%     63.44% # Class of committed instruction
system.cpu1.commit.op_class_0::SimdFloatMultAcc            0      0.00%     63.44% # Class of committed instruction
system.cpu1.commit.op_class_0::SimdFloatSqrt            0      0.00%     63.44% # Class of committed instruction
system.cpu1.commit.op_class_0::SimdReduceAdd            0      0.00%     63.44% # Class of committed instruction
system.cpu1.commit.op_class_0::SimdReduceAlu            0      0.00%     63.44% # Class of committed instruction
system.cpu1.commit.op_class_0::SimdReduceCmp            0      0.00%     63.44% # Class of committed instruction
system.cpu1.commit.op_class_0::SimdFloatReduceAdd            0      0.00%     63.44% # Class of committed instruction
system.cpu1.commit.op_class_0::SimdFloatReduceCmp            0      0.00%     63.44% # Class of committed instruction
system.cpu1.commit.op_class_0::SimdAes              0      0.00%     63.44% # Class of committed instruction
system.cpu1.commit.op_class_0::SimdAesMix            0      0.00%     63.44% # Class of committed instruction
system.cpu1.commit.op_class_0::SimdSha1Hash            0      0.00%     63.44% # Class of committed instruction
system.cpu1.commit.op_class_0::SimdSha1Hash2            0      0.00%     63.44% # Class of committed instruction
system.cpu1.commit.op_class_0::SimdSha256Hash            0      0.00%     63.44% # Class of committed instruction
system.cpu1.commit.op_class_0::SimdSha256Hash2            0      0.00%     63.44% # Class of committed instruction
system.cpu1.commit.op_class_0::SimdShaSigma2            0      0.00%     63.44% # Class of committed instruction
system.cpu1.commit.op_class_0::SimdShaSigma3            0      0.00%     63.44% # Class of committed instruction
system.cpu1.commit.op_class_0::SimdPredAlu            0      0.00%     63.44% # Class of committed instruction
system.cpu1.commit.op_class_0::MemRead       11205757     29.40%     92.85% # Class of committed instruction
system.cpu1.commit.op_class_0::MemWrite       2726701      7.15%    100.00% # Class of committed instruction
system.cpu1.commit.op_class_0::FloatMemRead            0      0.00%    100.00% # Class of committed instruction
system.cpu1.commit.op_class_0::FloatMemWrite           12      0.00%    100.00% # Class of committed instruction
system.cpu1.commit.op_class_0::IprAccess            0      0.00%    100.00% # Class of committed instruction
system.cpu1.commit.op_class_0::InstPrefetch            0      0.00%    100.00% # Class of committed instruction
system.cpu1.commit.op_class_0::total         38111252                       # Class of committed instruction
system.cpu1.commit.refs                      13932470                       # Number of memory references committed
system.cpu1.commit.swp_count                        0                       # Number of s/w prefetches committed
system.cpu1.commit.vec_insts                        0                       # Number of committed Vector instructions.
system.cpu1.committedInsts                   37205284                       # Number of Instructions Simulated
system.cpu1.committedOps                     38111252                       # Number of Ops (including micro ops) Simulated
system.cpu1.cpi                              5.644538                       # CPI: Cycles Per Instruction
system.cpu1.cpi_total                        5.644538                       # CPI: Total CPI of All Threads
system.cpu1.decode.BlockedCycles            183243217                       # Number of cycles decode is blocked
system.cpu1.decode.BranchMispred               150887                       # Number of times decode detected a branch misprediction
system.cpu1.decode.BranchResolved             5613171                       # Number of times decode resolved a branch
system.cpu1.decode.DecodedInsts              44959450                       # Number of instructions handled by decode
system.cpu1.decode.IdleCycles                 5810600                       # Number of cycles decode is idle
system.cpu1.decode.RunCycles                 17681627                       # Number of cycles decode is running
system.cpu1.decode.SquashCycles                632887                       # Number of cycles decode is squashing
system.cpu1.decode.SquashedInsts               346987                       # Number of squashed instructions handled by decode
system.cpu1.decode.UnblockCycles              2057954                       # Number of cycles decode is unblocking
system.cpu1.dtb.accesses                            0                       # DTB accesses
system.cpu1.dtb.hits                                0                       # DTB hits
system.cpu1.dtb.misses                              0                       # DTB misses
system.cpu1.dtb.read_accesses                       0                       # DTB read accesses
system.cpu1.dtb.read_hits                           0                       # DTB read hits
system.cpu1.dtb.read_misses                         0                       # DTB read misses
system.cpu1.dtb.write_accesses                      0                       # DTB write accesses
system.cpu1.dtb.write_hits                          0                       # DTB write hits
system.cpu1.dtb.write_misses                        0                       # DTB write misses
system.cpu1.fetch.Branches                   10951925                       # Number of branches that fetch encountered
system.cpu1.fetch.CacheLines                  5625302                       # Number of cache lines fetched
system.cpu1.fetch.Cycles                    202326424                       # Number of cycles fetch has run and was not squashing or blocked
system.cpu1.fetch.IcacheSquashes                81867                       # Number of outstanding Icache misses that were squashed
system.cpu1.fetch.Insts                      45781368                       # Number of instructions fetch has processed
system.cpu1.fetch.MiscStallCycles                   1                       # Number of cycles fetch has spent waiting on interrupts, or bad addresses, or out of MSHRs
system.cpu1.fetch.SquashCycles                1550958                       # Number of cycles fetch has spent squashing
system.cpu1.fetch.branchRate                 0.052150                       # Number of branch fetches per cycle
system.cpu1.fetch.icacheStallCycles           6324381                       # Number of cycles fetch is stalled on an Icache miss
system.cpu1.fetch.predictedBranches           6076916                       # Number of branches that fetch has predicted taken
system.cpu1.fetch.rate                       0.218000                       # Number of inst fetches per cycle
system.cpu1.fetch.rateDist::samples         209426285                       # Number of instructions fetched each cycle (Total)
system.cpu1.fetch.rateDist::mean             0.222935                       # Number of instructions fetched each cycle (Total)
system.cpu1.fetch.rateDist::stdev            0.651245                       # Number of instructions fetched each cycle (Total)
system.cpu1.fetch.rateDist::underflows              0      0.00%      0.00% # Number of instructions fetched each cycle (Total)
system.cpu1.fetch.rateDist::0               180444502     86.16%     86.16% # Number of instructions fetched each cycle (Total)
system.cpu1.fetch.rateDist::1                17540301      8.38%     94.54% # Number of instructions fetched each cycle (Total)
system.cpu1.fetch.rateDist::2                 6973979      3.33%     97.87% # Number of instructions fetched each cycle (Total)
system.cpu1.fetch.rateDist::3                 3023750      1.44%     99.31% # Number of instructions fetched each cycle (Total)
system.cpu1.fetch.rateDist::4                 1185453      0.57%     99.88% # Number of instructions fetched each cycle (Total)
system.cpu1.fetch.rateDist::5                  197355      0.09%     99.97% # Number of instructions fetched each cycle (Total)
system.cpu1.fetch.rateDist::6                   43579      0.02%     99.99% # Number of instructions fetched each cycle (Total)
system.cpu1.fetch.rateDist::7                      72      0.00%     99.99% # Number of instructions fetched each cycle (Total)
system.cpu1.fetch.rateDist::8                   17294      0.01%    100.00% # Number of instructions fetched each cycle (Total)
system.cpu1.fetch.rateDist::overflows               0      0.00%    100.00% # Number of instructions fetched each cycle (Total)
system.cpu1.fetch.rateDist::min_value               0                       # Number of instructions fetched each cycle (Total)
system.cpu1.fetch.rateDist::max_value               8                       # Number of instructions fetched each cycle (Total)
system.cpu1.fetch.rateDist::total           209426285                       # Number of instructions fetched each cycle (Total)
system.cpu1.fp_regfile_reads                       12                       # number of floating regfile reads
system.cpu1.idleCycles                         580372                       # Total number of cycles that the CPU has spent unscheduled due to idling
system.cpu1.iew.branchMispredicts              672705                       # Number of branch mispredicts detected at execute
system.cpu1.iew.exec_branches                 9348296                       # Number of branches executed
system.cpu1.iew.exec_nop                            0                       # number of nop insts executed
system.cpu1.iew.exec_rate                    0.195135                       # Inst execution rate
system.cpu1.iew.exec_refs                    14945672                       # number of memory reference insts executed
system.cpu1.iew.exec_stores                   3872546                       # Number of stores executed
system.cpu1.iew.exec_swp                            0                       # number of swp insts executed
system.cpu1.iew.iewBlockCycles              162465835                       # Number of cycles IEW is blocking
system.cpu1.iew.iewDispLoadInsts             11377778                       # Number of dispatched load instructions
system.cpu1.iew.iewDispNonSpecInsts            906640                       # Number of dispatched non-speculative instructions
system.cpu1.iew.iewDispSquashedInsts           674238                       # Number of squashed instructions skipped by dispatch
system.cpu1.iew.iewDispStoreInsts             4048979                       # Number of dispatched store instructions
system.cpu1.iew.iewDispatchedInsts           42541994                       # Number of instructions dispatched to IQ
system.cpu1.iew.iewExecLoadInsts             11073126                       # Number of load instructions executed
system.cpu1.iew.iewExecSquashedInsts           695389                       # Number of squashed instructions skipped in execute
system.cpu1.iew.iewExecutedInsts             40979590                       # Number of executed instructions
system.cpu1.iew.iewIQFullEvents                832422                       # Number of times the IQ has become full, causing a stall
system.cpu1.iew.iewIdleCycles                       0                       # Number of cycles IEW is idle
system.cpu1.iew.iewLSQFullEvents               901588                       # Number of times the LSQ has become full, causing a stall
system.cpu1.iew.iewSquashCycles                632887                       # Number of cycles IEW is squashing
system.cpu1.iew.iewUnblockCycles              2764246                       # Number of cycles IEW is unblocking
system.cpu1.iew.lsq.thread0.blockedLoads            0                       # Number of blocked loads due to partial load-store forwarding
system.cpu1.iew.lsq.thread0.cacheBlocked        18325                       # Number of times an access to memory failed due to the cache being blocked
system.cpu1.iew.lsq.thread0.forwLoads          172009                       # Number of loads that had data forwarded from stores
system.cpu1.iew.lsq.thread0.ignoredResponses         5086                       # Number of memory responses ignored because the instruction is squashed
system.cpu1.iew.lsq.thread0.invAddrLoads            0                       # Number of loads ignored due to an invalid address
system.cpu1.iew.lsq.thread0.invAddrSwpfs            0                       # Number of software prefetches ignored due to an invalid address
system.cpu1.iew.lsq.thread0.memOrderViolation         1354                       # Number of memory ordering violations
system.cpu1.iew.lsq.thread0.rescheduledLoads         3327                       # Number of loads that were rescheduled
system.cpu1.iew.lsq.thread0.squashedLoads      1077821                       # Number of loads squashed
system.cpu1.iew.lsq.thread0.squashedStores       416466                       # Number of stores squashed
system.cpu1.iew.memOrderViolationEvents          1354                       # Number of memory order violations
system.cpu1.iew.predictedNotTakenIncorrect       246967                       # Number of branches that were predicted not taken incorrectly
system.cpu1.iew.predictedTakenIncorrect        425738                       # Number of branches that were predicted taken incorrectly
system.cpu1.iew.wb_consumers                 22038058                       # num instructions consuming a value
system.cpu1.iew.wb_count                     40524674                       # cumulative count of insts written-back
system.cpu1.iew.wb_fanout                    0.843353                       # average fanout of values written-back
system.cpu1.iew.wb_producers                 18585854                       # num instructions producing a value
system.cpu1.iew.wb_rate                      0.192969                       # insts written-back per cycle
system.cpu1.iew.wb_sent                      40542200                       # cumulative count of insts sent to commit
system.cpu1.int_regfile_reads                51917935                       # number of integer regfile reads
system.cpu1.int_regfile_writes               26624142                       # number of integer regfile writes
system.cpu1.ipc                              0.177162                       # IPC: Instructions Per Cycle
system.cpu1.ipc_total                        0.177162                       # IPC: Total IPC of All Threads
system.cpu1.iq.FU_type_0::No_OpClass          1811846      4.35%      4.35% # Type of FU issued
system.cpu1.iq.FU_type_0::IntAlu             24686031     59.23%     63.58% # Type of FU issued
system.cpu1.iq.FU_type_0::IntMult                  48      0.00%     63.58% # Type of FU issued
system.cpu1.iq.FU_type_0::IntDiv                   86      0.00%     63.58% # Type of FU issued
system.cpu1.iq.FU_type_0::FloatAdd                  0      0.00%     63.58% # Type of FU issued
system.cpu1.iq.FU_type_0::FloatCmp                  0      0.00%     63.58% # Type of FU issued
system.cpu1.iq.FU_type_0::FloatCvt                  0      0.00%     63.58% # Type of FU issued
system.cpu1.iq.FU_type_0::FloatMult                 0      0.00%     63.58% # Type of FU issued
system.cpu1.iq.FU_type_0::FloatMultAcc              0      0.00%     63.58% # Type of FU issued
system.cpu1.iq.FU_type_0::FloatDiv                  0      0.00%     63.58% # Type of FU issued
system.cpu1.iq.FU_type_0::FloatMisc                 0      0.00%     63.58% # Type of FU issued
system.cpu1.iq.FU_type_0::FloatSqrt                 0      0.00%     63.58% # Type of FU issued
system.cpu1.iq.FU_type_0::SimdAdd                   0      0.00%     63.58% # Type of FU issued
system.cpu1.iq.FU_type_0::SimdAddAcc                0      0.00%     63.58% # Type of FU issued
system.cpu1.iq.FU_type_0::SimdAlu                   0      0.00%     63.58% # Type of FU issued
system.cpu1.iq.FU_type_0::SimdCmp                   0      0.00%     63.58% # Type of FU issued
system.cpu1.iq.FU_type_0::SimdCvt                   0      0.00%     63.58% # Type of FU issued
system.cpu1.iq.FU_type_0::SimdMisc                  0      0.00%     63.58% # Type of FU issued
system.cpu1.iq.FU_type_0::SimdMult                  0      0.00%     63.58% # Type of FU issued
system.cpu1.iq.FU_type_0::SimdMultAcc               0      0.00%     63.58% # Type of FU issued
system.cpu1.iq.FU_type_0::SimdShift                 0      0.00%     63.58% # Type of FU issued
system.cpu1.iq.FU_type_0::SimdShiftAcc              0      0.00%     63.58% # Type of FU issued
system.cpu1.iq.FU_type_0::SimdDiv                   0      0.00%     63.58% # Type of FU issued
system.cpu1.iq.FU_type_0::SimdSqrt                  0      0.00%     63.58% # Type of FU issued
system.cpu1.iq.FU_type_0::SimdFloatAdd              0      0.00%     63.58% # Type of FU issued
system.cpu1.iq.FU_type_0::SimdFloatAlu              0      0.00%     63.58% # Type of FU issued
system.cpu1.iq.FU_type_0::SimdFloatCmp              0      0.00%     63.58% # Type of FU issued
system.cpu1.iq.FU_type_0::SimdFloatCvt              0      0.00%     63.58% # Type of FU issued
system.cpu1.iq.FU_type_0::SimdFloatDiv              0      0.00%     63.58% # Type of FU issued
system.cpu1.iq.FU_type_0::SimdFloatMisc             0      0.00%     63.58% # Type of FU issued
system.cpu1.iq.FU_type_0::SimdFloatMult             0      0.00%     63.58% # Type of FU issued
system.cpu1.iq.FU_type_0::SimdFloatMultAcc            0      0.00%     63.58% # Type of FU issued
system.cpu1.iq.FU_type_0::SimdFloatSqrt             0      0.00%     63.58% # Type of FU issued
system.cpu1.iq.FU_type_0::SimdReduceAdd             0      0.00%     63.58% # Type of FU issued
system.cpu1.iq.FU_type_0::SimdReduceAlu             0      0.00%     63.58% # Type of FU issued
system.cpu1.iq.FU_type_0::SimdReduceCmp             0      0.00%     63.58% # Type of FU issued
system.cpu1.iq.FU_type_0::SimdFloatReduceAdd            0      0.00%     63.58% # Type of FU issued
system.cpu1.iq.FU_type_0::SimdFloatReduceCmp            0      0.00%     63.58% # Type of FU issued
system.cpu1.iq.FU_type_0::SimdAes                   0      0.00%     63.58% # Type of FU issued
system.cpu1.iq.FU_type_0::SimdAesMix                0      0.00%     63.58% # Type of FU issued
system.cpu1.iq.FU_type_0::SimdSha1Hash              0      0.00%     63.58% # Type of FU issued
system.cpu1.iq.FU_type_0::SimdSha1Hash2             0      0.00%     63.58% # Type of FU issued
system.cpu1.iq.FU_type_0::SimdSha256Hash            0      0.00%     63.58% # Type of FU issued
system.cpu1.iq.FU_type_0::SimdSha256Hash2            0      0.00%     63.58% # Type of FU issued
system.cpu1.iq.FU_type_0::SimdShaSigma2             0      0.00%     63.58% # Type of FU issued
system.cpu1.iq.FU_type_0::SimdShaSigma3             0      0.00%     63.58% # Type of FU issued
system.cpu1.iq.FU_type_0::SimdPredAlu               0      0.00%     63.58% # Type of FU issued
system.cpu1.iq.FU_type_0::MemRead            12175178     29.21%     92.80% # Type of FU issued
system.cpu1.iq.FU_type_0::MemWrite            3001778      7.20%    100.00% # Type of FU issued
system.cpu1.iq.FU_type_0::FloatMemRead              0      0.00%    100.00% # Type of FU issued
system.cpu1.iq.FU_type_0::FloatMemWrite            12      0.00%    100.00% # Type of FU issued
system.cpu1.iq.FU_type_0::IprAccess                 0      0.00%    100.00% # Type of FU issued
system.cpu1.iq.FU_type_0::InstPrefetch              0      0.00%    100.00% # Type of FU issued
system.cpu1.iq.FU_type_0::total              41674979                       # Type of FU issued
system.cpu1.iq.fp_alu_accesses                     14                       # Number of floating point alu accesses
system.cpu1.iq.fp_inst_queue_reads                 26                       # Number of floating instruction queue reads
system.cpu1.iq.fp_inst_queue_wakeup_accesses           12                       # Number of floating instruction queue wakeup accesses
system.cpu1.iq.fp_inst_queue_writes                12                       # Number of floating instruction queue writes
system.cpu1.iq.fu_busy_cnt                    1011730                       # FU busy when requested
system.cpu1.iq.fu_busy_rate                  0.024277                       # FU busy rate (busy events/executed inst)
system.cpu1.iq.fu_full::No_OpClass                  0      0.00%      0.00% # attempts to use FU when none available
system.cpu1.iq.fu_full::IntAlu                 176893     17.48%     17.48% # attempts to use FU when none available
system.cpu1.iq.fu_full::IntMult                     0      0.00%     17.48% # attempts to use FU when none available
system.cpu1.iq.fu_full::IntDiv                      0      0.00%     17.48% # attempts to use FU when none available
system.cpu1.iq.fu_full::FloatAdd                    0      0.00%     17.48% # attempts to use FU when none available
system.cpu1.iq.fu_full::FloatCmp                    0      0.00%     17.48% # attempts to use FU when none available
system.cpu1.iq.fu_full::FloatCvt                    0      0.00%     17.48% # attempts to use FU when none available
system.cpu1.iq.fu_full::FloatMult                   0      0.00%     17.48% # attempts to use FU when none available
system.cpu1.iq.fu_full::FloatMultAcc                0      0.00%     17.48% # attempts to use FU when none available
system.cpu1.iq.fu_full::FloatDiv                    0      0.00%     17.48% # attempts to use FU when none available
system.cpu1.iq.fu_full::FloatMisc                   0      0.00%     17.48% # attempts to use FU when none available
system.cpu1.iq.fu_full::FloatSqrt                   0      0.00%     17.48% # attempts to use FU when none available
system.cpu1.iq.fu_full::SimdAdd                     0      0.00%     17.48% # attempts to use FU when none available
system.cpu1.iq.fu_full::SimdAddAcc                  0      0.00%     17.48% # attempts to use FU when none available
system.cpu1.iq.fu_full::SimdAlu                     0      0.00%     17.48% # attempts to use FU when none available
system.cpu1.iq.fu_full::SimdCmp                     0      0.00%     17.48% # attempts to use FU when none available
system.cpu1.iq.fu_full::SimdCvt                     0      0.00%     17.48% # attempts to use FU when none available
system.cpu1.iq.fu_full::SimdMisc                    0      0.00%     17.48% # attempts to use FU when none available
system.cpu1.iq.fu_full::SimdMult                    0      0.00%     17.48% # attempts to use FU when none available
system.cpu1.iq.fu_full::SimdMultAcc                 0      0.00%     17.48% # attempts to use FU when none available
system.cpu1.iq.fu_full::SimdShift                   0      0.00%     17.48% # attempts to use FU when none available
system.cpu1.iq.fu_full::SimdShiftAcc                0      0.00%     17.48% # attempts to use FU when none available
system.cpu1.iq.fu_full::SimdDiv                     0      0.00%     17.48% # attempts to use FU when none available
system.cpu1.iq.fu_full::SimdSqrt                    0      0.00%     17.48% # attempts to use FU when none available
system.cpu1.iq.fu_full::SimdFloatAdd                0      0.00%     17.48% # attempts to use FU when none available
system.cpu1.iq.fu_full::SimdFloatAlu                0      0.00%     17.48% # attempts to use FU when none available
system.cpu1.iq.fu_full::SimdFloatCmp                0      0.00%     17.48% # attempts to use FU when none available
system.cpu1.iq.fu_full::SimdFloatCvt                0      0.00%     17.48% # attempts to use FU when none available
system.cpu1.iq.fu_full::SimdFloatDiv                0      0.00%     17.48% # attempts to use FU when none available
system.cpu1.iq.fu_full::SimdFloatMisc               0      0.00%     17.48% # attempts to use FU when none available
system.cpu1.iq.fu_full::SimdFloatMult               0      0.00%     17.48% # attempts to use FU when none available
system.cpu1.iq.fu_full::SimdFloatMultAcc            0      0.00%     17.48% # attempts to use FU when none available
system.cpu1.iq.fu_full::SimdFloatSqrt               0      0.00%     17.48% # attempts to use FU when none available
system.cpu1.iq.fu_full::SimdReduceAdd               0      0.00%     17.48% # attempts to use FU when none available
system.cpu1.iq.fu_full::SimdReduceAlu               0      0.00%     17.48% # attempts to use FU when none available
system.cpu1.iq.fu_full::SimdReduceCmp               0      0.00%     17.48% # attempts to use FU when none available
system.cpu1.iq.fu_full::SimdFloatReduceAdd            0      0.00%     17.48% # attempts to use FU when none available
system.cpu1.iq.fu_full::SimdFloatReduceCmp            0      0.00%     17.48% # attempts to use FU when none available
system.cpu1.iq.fu_full::SimdAes                     0      0.00%     17.48% # attempts to use FU when none available
system.cpu1.iq.fu_full::SimdAesMix                  0      0.00%     17.48% # attempts to use FU when none available
system.cpu1.iq.fu_full::SimdSha1Hash                0      0.00%     17.48% # attempts to use FU when none available
system.cpu1.iq.fu_full::SimdSha1Hash2               0      0.00%     17.48% # attempts to use FU when none available
system.cpu1.iq.fu_full::SimdSha256Hash              0      0.00%     17.48% # attempts to use FU when none available
system.cpu1.iq.fu_full::SimdSha256Hash2             0      0.00%     17.48% # attempts to use FU when none available
system.cpu1.iq.fu_full::SimdShaSigma2               0      0.00%     17.48% # attempts to use FU when none available
system.cpu1.iq.fu_full::SimdShaSigma3               0      0.00%     17.48% # attempts to use FU when none available
system.cpu1.iq.fu_full::SimdPredAlu                 0      0.00%     17.48% # attempts to use FU when none available
system.cpu1.iq.fu_full::MemRead                748296     73.96%     91.45% # attempts to use FU when none available
system.cpu1.iq.fu_full::MemWrite                86539      8.55%    100.00% # attempts to use FU when none available
[...]
system.cpu1.dcache.WriteReq_avg_mshr_miss_latency::total 114459.467808                       # average WriteReq mshr miss latency
system.cpu1.dcache.LoadLockedReq_hits::.cpu1.data      1172986                       # number of LoadLockedReq hits
system.cpu1.dcache.LoadLockedReq_hits::total      1172986                       # number of LoadLockedReq hits
system.cpu1.dcache.LoadLockedReq_misses::.cpu1.data         3648                       # number of LoadLockedReq misses
system.cpu1.dcache.LoadLockedReq_misses::total         3648                       # number of LoadLockedReq misses
system.cpu1.dcache.LoadLockedReq_miss_latency::.cpu1.data     71166000                       # number of LoadLockedReq miss cycles
system.cpu1.dcache.LoadLockedReq_miss_latency::total     71166000                       # number of LoadLockedReq miss cycles
system.cpu1.dcache.LoadLockedReq_accesses::.cpu1.data      1176634                       # number of LoadLockedReq accesses(hits+misses)
system.cpu1.dcache.LoadLockedReq_accesses::total      1176634                       # number of LoadLockedReq accesses(hits+misses)
system.cpu1.dcache.LoadLockedReq_miss_rate::.cpu1.data     0.003100                       # miss rate for LoadLockedReq accesses
system.cpu1.dcache.LoadLockedReq_miss_rate::total     0.003100                       # miss rate for LoadLockedReq accesses
system.cpu1.dcache.LoadLockedReq_avg_miss_latency::.cpu1.data 19508.223684                       # average LoadLockedReq miss latency
system.cpu1.dcache.LoadLockedReq_avg_miss_latency::total 19508.223684                       # average LoadLockedReq miss latency
system.cpu1.dcache.LoadLockedReq_mshr_hits::.cpu1.data          308                       # number of LoadLockedReq MSHR hits
system.cpu1.dcache.LoadLockedReq_mshr_hits::total          308                       # number of LoadLockedReq MSHR hits
system.cpu1.dcache.LoadLockedReq_mshr_misses::.cpu1.data         3340                       # number of LoadLockedReq MSHR misses
system.cpu1.dcache.LoadLockedReq_mshr_misses::total         3340                       # number of LoadLockedReq MSHR misses
system.cpu1.dcache.LoadLockedReq_mshr_miss_latency::.cpu1.data     53525500                       # number of LoadLockedReq MSHR miss cycles
system.cpu1.dcache.LoadLockedReq_mshr_miss_latency::total     53525500                       # number of LoadLockedReq MSHR miss cycles
system.cpu1.dcache.LoadLockedReq_mshr_miss_rate::.cpu1.data     0.002839                       # mshr miss rate for LoadLockedReq accesses
system.cpu1.dcache.LoadLockedReq_mshr_miss_rate::total     0.002839                       # mshr miss rate for LoadLockedReq accesses
system.cpu1.dcache.LoadLockedReq_avg_mshr_miss_latency::.cpu1.data 16025.598802                       # average LoadLockedReq mshr miss latency
system.cpu1.dcache.LoadLockedReq_avg_mshr_miss_latency::total 16025.598802                       # average LoadLockedReq mshr miss latency
system.cpu1.dcache.StoreCondReq_hits::.cpu1.data      1165515                       # number of StoreCondReq hits
system.cpu1.dcache.StoreCondReq_hits::total      1165515                       # number of StoreCondReq hits
system.cpu1.dcache.StoreCondReq_misses::.cpu1.data         7690                       # number of StoreCondReq misses
system.cpu1.dcache.StoreCondReq_misses::total         7690                       # number of StoreCondReq misses
system.cpu1.dcache.StoreCondReq_miss_latency::.cpu1.data     82965500                       # number of StoreCondReq miss cycles
system.cpu1.dcache.StoreCondReq_miss_latency::total     82965500                       # number of StoreCondReq miss cycles
system.cpu1.dcache.StoreCondReq_accesses::.cpu1.data      1173205                       # number of StoreCondReq accesses(hits+misses)
system.cpu1.dcache.StoreCondReq_accesses::total      1173205                       # number of StoreCondReq accesses(hits+misses)
system.cpu1.dcache.StoreCondReq_miss_rate::.cpu1.data     0.006555                       # miss rate for StoreCondReq accesses
system.cpu1.dcache.StoreCondReq_miss_rate::total     0.006555                       # miss rate for StoreCondReq accesses
system.cpu1.dcache.StoreCondReq_avg_miss_latency::.cpu1.data 10788.751625                       # average StoreCondReq miss latency
system.cpu1.dcache.StoreCondReq_avg_miss_latency::total 10788.751625                       # average StoreCondReq miss latency
system.cpu1.dcache.StoreCondReq_mshr_misses::.cpu1.data         7550                       # number of StoreCondReq MSHR misses
system.cpu1.dcache.StoreCondReq_mshr_misses::total         7550                       # number of StoreCondReq MSHR misses
system.cpu1.dcache.StoreCondReq_mshr_miss_latency::.cpu1.data     75673500                       # number of StoreCondReq MSHR miss cycles
system.cpu1.dcache.StoreCondReq_mshr_miss_latency::total     75673500                       # number of StoreCondReq MSHR miss cycles
system.cpu1.dcache.StoreCondReq_mshr_miss_rate::.cpu1.data     0.006435                       # mshr miss rate for StoreCondReq accesses
system.cpu1.dcache.StoreCondReq_mshr_miss_rate::total     0.006435                       # mshr miss rate for StoreCondReq accesses
system.cpu1.dcache.StoreCondReq_avg_mshr_miss_latency::.cpu1.data 10022.980132                       # average StoreCondReq mshr miss latency
system.cpu1.dcache.StoreCondReq_avg_mshr_miss_latency::total 10022.980132                       # average StoreCondReq mshr miss latency
system.cpu1.dcache.StoreCondFailReq_miss_latency::.cpu1.data      3688000                       # number of StoreCondFailReq miss cycles
system.cpu1.dcache.StoreCondFailReq_miss_latency::total      3688000                       # number of StoreCondFailReq miss cycles
system.cpu1.dcache.StoreCondFailReq_avg_miss_latency::.cpu1.data          inf                       # average StoreCondFailReq miss latency
system.cpu1.dcache.StoreCondFailReq_avg_miss_latency::total          inf                       # average StoreCondFailReq miss latency
system.cpu1.dcache.StoreCondFailReq_mshr_miss_latency::.cpu1.data      3430000                       # number of StoreCondFailReq MSHR miss cycles
system.cpu1.dcache.StoreCondFailReq_mshr_miss_latency::total      3430000                       # number of StoreCondFailReq MSHR miss cycles
system.cpu1.dcache.StoreCondFailReq_avg_mshr_miss_latency::.cpu1.data          inf                       # average StoreCondFailReq mshr miss latency
system.cpu1.dcache.StoreCondFailReq_avg_mshr_miss_latency::total          inf                       # average StoreCondFailReq mshr miss latency
system.cpu1.dcache.SwapReq_hits::.cpu1.data       208720                       # number of SwapReq hits
system.cpu1.dcache.SwapReq_hits::total         208720                       # number of SwapReq hits
system.cpu1.dcache.SwapReq_misses::.cpu1.data       667861                       # number of SwapReq misses
system.cpu1.dcache.SwapReq_misses::total       667861                       # number of SwapReq misses
system.cpu1.dcache.SwapReq_miss_latency::.cpu1.data  68813633708                       # number of SwapReq miss cycles
system.cpu1.dcache.SwapReq_miss_latency::total  68813633708                       # number of SwapReq miss cycles
system.cpu1.dcache.SwapReq_accesses::.cpu1.data       876581                       # number of SwapReq accesses(hits+misses)
system.cpu1.dcache.SwapReq_accesses::total       876581                       # number of SwapReq accesses(hits+misses)
system.cpu1.dcache.SwapReq_miss_rate::.cpu1.data     0.761893                       # miss rate for SwapReq accesses
system.cpu1.dcache.SwapReq_miss_rate::total     0.761893                       # miss rate for SwapReq accesses
system.cpu1.dcache.SwapReq_avg_miss_latency::.cpu1.data 103035.861816                       # average SwapReq miss latency
system.cpu1.dcache.SwapReq_avg_miss_latency::total 103035.861816                       # average SwapReq miss latency
system.cpu1.dcache.SwapReq_mshr_hits::.cpu1.data            1                       # number of SwapReq MSHR hits
system.cpu1.dcache.SwapReq_mshr_hits::total            1                       # number of SwapReq MSHR hits
system.cpu1.dcache.SwapReq_mshr_misses::.cpu1.data       667860                       # number of SwapReq MSHR misses
system.cpu1.dcache.SwapReq_mshr_misses::total       667860                       # number of SwapReq MSHR misses
system.cpu1.dcache.SwapReq_mshr_miss_latency::.cpu1.data  68145772708                       # number of SwapReq MSHR miss cycles
system.cpu1.dcache.SwapReq_mshr_miss_latency::total  68145772708                       # number of SwapReq MSHR miss cycles
system.cpu1.dcache.SwapReq_mshr_miss_rate::.cpu1.data     0.761892                       # mshr miss rate for SwapReq accesses
system.cpu1.dcache.SwapReq_mshr_miss_rate::total     0.761892                       # mshr miss rate for SwapReq accesses
system.cpu1.dcache.SwapReq_avg_mshr_miss_latency::.cpu1.data 102036.014596                       # average SwapReq mshr miss latency
system.cpu1.dcache.SwapReq_avg_mshr_miss_latency::total 102036.014596                       # average SwapReq mshr miss latency
system.cpu1.dcache.tags.pwrStateResidencyTicks::UNDEFINED 433425376500                       # Cumulative time (in ticks) in various power states
system.cpu1.dcache.tags.tagsinuse           31.604451                       # Cycle average of tags in use
system.cpu1.dcache.tags.total_refs           44233120                       # Total number of references to valid blocks.
system.cpu1.dcache.tags.sampled_refs          7524002                       # Sample count of references to valid blocks.
system.cpu1.dcache.tags.avg_refs             5.878935                       # Average number of references to valid blocks.
system.cpu1.dcache.tags.warmup_cycle                0                       # Cycle when the warmup percentage was hit.
system.cpu1.dcache.tags.occ_blocks::.cpu1.data    31.604451                       # Average occupied blocks per requestor
system.cpu1.dcache.tags.occ_percent::.cpu1.data     0.987639                       # Average percentage of cache occupancy
system.cpu1.dcache.tags.occ_percent::total     0.987639                       # Average percentage of cache occupancy
system.cpu1.dcache.tags.occ_task_id_blocks::1024           28                       # Occupied blocks per task id
system.cpu1.dcache.tags.age_task_id_blocks_1024::1           28                       # Occupied blocks per task id
system.cpu1.dcache.tags.occ_task_id_percent::1024     0.875000                       # Percentage of cache occupancy per task id
system.cpu1.dcache.tags.tag_accesses        106580946                       # Number of tag accesses
system.cpu1.dcache.tags.data_accesses       106580946                       # Number of data accesses
system.cpu_clk_domain.clock                       500                       # Clock period in ticks
system.tol2bus.pwrStateResidencyTicks::UNDEFINED 433425376500                       # Cumulative time (in ticks) in various power states
system.tol2bus.trans_dist::ReadResp          25858438                       # Transaction distribution
system.tol2bus.trans_dist::ReadRespWithInvalidate           34                       # Transaction distribution
system.tol2bus.trans_dist::WritebackDirty     12052890                       # Transaction distribution
system.tol2bus.trans_dist::WritebackClean     23691160                       # Transaction distribution
system.tol2bus.trans_dist::CleanEvict        56677672                       # Transaction distribution
system.tol2bus.trans_dist::HardPFReq         19822712                       # Transaction distribution
system.tol2bus.trans_dist::HardPFResp               9                       # Transaction distribution
system.tol2bus.trans_dist::UpgradeReq           27453                       # Transaction distribution
system.tol2bus.trans_dist::SCUpgradeReq         29922                       # Transaction distribution
system.tol2bus.trans_dist::UpgradeResp          57375                       # Transaction distribution
system.tol2bus.trans_dist::SCUpgradeFailReq          972                       # Transaction distribution
system.tol2bus.trans_dist::UpgradeFailResp          972                       # Transaction distribution
system.tol2bus.trans_dist::ReadExReq          4261838                       # Transaction distribution
system.tol2bus.trans_dist::ReadExResp         4261839                       # Transaction distribution
system.tol2bus.trans_dist::ReadCleanReq        227000                       # Transaction distribution
system.tol2bus.trans_dist::ReadSharedReq     25631474                       # Transaction distribution
system.tol2bus.trans_dist::InvalidateReq         2504                       # Transaction distribution
system.tol2bus.trans_dist::InvalidateResp         2504                       # Transaction distribution
system.tol2bus.pkt_count_system.cpu0.icache.mem_side::system.l2.cpu_side       265735                       # Packet count per connected master and slave (bytes)
system.tol2bus.pkt_count_system.cpu0.dcache.mem_side::system.l2.cpu_side     22367908                       # Packet count per connected master and slave (bytes)
system.tol2bus.pkt_count_system.cpu1.icache.mem_side::system.l2.cpu_side       143094                       # Packet count per connected master and slave (bytes)
system.tol2bus.pkt_count_system.cpu1.dcache.mem_side::system.l2.cpu_side     22517335                       # Packet count per connected master and slave (bytes)
system.tol2bus.pkt_count_system.cpu2.icache.mem_side::system.l2.cpu_side       136422                       # Packet count per connected master and slave (bytes)
system.tol2bus.pkt_count_system.cpu2.dcache.mem_side::system.l2.cpu_side     22272082                       # Packet count per connected master and slave (bytes)
system.tol2bus.pkt_count_system.cpu3.icache.mem_side::system.l2.cpu_side       135747                       # Packet count per connected master and slave (bytes)
system.tol2bus.pkt_count_system.cpu3.dcache.mem_side::system.l2.cpu_side     22317352                       # Packet count per connected master and slave (bytes)
system.tol2bus.pkt_count::total              90155675                       # Packet count per connected master and slave (bytes)
system.tol2bus.pkt_size_system.cpu0.icache.mem_side::system.l2.cpu_side     11337984                       # Cumulative packet size per connected master and slave (bytes)
system.tol2bus.pkt_size_system.cpu0.dcache.mem_side::system.l2.cpu_side    951948160                       # Cumulative packet size per connected master and slave (bytes)
system.tol2bus.pkt_size_system.cpu1.icache.mem_side::system.l2.cpu_side      6105344                       # Cumulative packet size per connected master and slave (bytes)
system.tol2bus.pkt_size_system.cpu1.dcache.mem_side::system.l2.cpu_side    958396544                       # Cumulative packet size per connected master and slave (bytes)
system.tol2bus.pkt_size_system.cpu2.icache.mem_side::system.l2.cpu_side      5820672                       # Cumulative packet size per connected master and slave (bytes)
system.tol2bus.pkt_size_system.cpu2.dcache.mem_side::system.l2.cpu_side    947917248                       # Cumulative packet size per connected master and slave (bytes)
system.tol2bus.pkt_size_system.cpu3.icache.mem_side::system.l2.cpu_side      5791872                       # Cumulative packet size per connected master and slave (bytes)
system.tol2bus.pkt_size_system.cpu3.dcache.mem_side::system.l2.cpu_side    949821888                       # Cumulative packet size per connected master and slave (bytes)
system.tol2bus.pkt_size::total             3837139712                       # Cumulative packet size per connected master and slave (bytes)
system.tol2bus.snoops                        82451102                       # Total snoops (count)
system.tol2bus.snoopTraffic                 378242752                       # Total snoop traffic (bytes)
system.tol2bus.snoop_fanout::samples        112918928                       # Request fanout histogram
system.tol2bus.snoop_fanout::mean            0.289100                       # Request fanout histogram
system.tol2bus.snoop_fanout::stdev           0.565960                       # Request fanout histogram
system.tol2bus.snoop_fanout::underflows             0      0.00%      0.00% # Request fanout histogram
system.tol2bus.snoop_fanout::0               84453000     74.79%     74.79% # Request fanout histogram
system.tol2bus.snoop_fanout::1               26141204     23.15%     97.94% # Request fanout histogram
system.tol2bus.snoop_fanout::2                 918335      0.81%     98.75% # Request fanout histogram
system.tol2bus.snoop_fanout::3                 958575      0.85%     99.60% # Request fanout histogram
system.tol2bus.snoop_fanout::4                 447812      0.40%    100.00% # Request fanout histogram
system.tol2bus.snoop_fanout::5                      2      0.00%    100.00% # Request fanout histogram
system.tol2bus.snoop_fanout::6                      0      0.00%    100.00% # Request fanout histogram
system.tol2bus.snoop_fanout::7                      0      0.00%    100.00% # Request fanout histogram
system.tol2bus.snoop_fanout::8                      0      0.00%    100.00% # Request fanout histogram
system.tol2bus.snoop_fanout::overflows              0      0.00%    100.00% # Request fanout histogram
system.tol2bus.snoop_fanout::min_value              0                       # Request fanout histogram
system.tol2bus.snoop_fanout::max_value              5                       # Request fanout histogram
system.tol2bus.snoop_fanout::total          112918928                       # Request fanout histogram
system.tol2bus.reqLayer0.occupancy        61035566931                       # Layer occupancy (ticks)
system.tol2bus.reqLayer0.utilization             14.1                       # Layer utilization (%)
system.tol2bus.respLayer5.occupancy       11194509082                       # Layer occupancy (ticks)
system.tol2bus.respLayer5.utilization             2.6                       # Layer utilization (%)
system.tol2bus.respLayer4.occupancy          70540975                       # Layer occupancy (ticks)
system.tol2bus.respLayer4.utilization             0.0                       # Layer utilization (%)
system.tol2bus.respLayer7.occupancy       11217544153                       # Layer occupancy (ticks)
system.tol2bus.respLayer7.utilization             2.6                       # Layer utilization (%)
system.tol2bus.respLayer6.occupancy          70153550                       # Layer occupancy (ticks)
system.tol2bus.respLayer6.utilization             0.0                       # Layer utilization (%)
system.tol2bus.respLayer1.occupancy       11239355877                       # Layer occupancy (ticks)
system.tol2bus.respLayer1.utilization             2.6                       # Layer utilization (%)
system.tol2bus.respLayer0.occupancy         134243770                       # Layer occupancy (ticks)
system.tol2bus.respLayer0.utilization             0.0                       # Layer utilization (%)
system.tol2bus.respLayer3.occupancy       11316613118                       # Layer occupancy (ticks)
system.tol2bus.respLayer3.utilization             2.6                       # Layer utilization (%)
system.tol2bus.respLayer2.occupancy          73824598                       # Layer occupancy (ticks)
system.tol2bus.respLayer2.utilization             0.0                       # Layer utilization (%)
system.tol2bus.snoopLayer0.occupancy            13507                       # Layer occupancy (ticks)
system.tol2bus.snoopLayer0.utilization            0.0                       # Layer utilization (%)

---------- End Simulation Statistics   ----------
