
---------- Begin Simulation Statistics ----------
final_tick                               960205645500                       # Number of ticks from beginning of simulation (restored from checkpoints and never reset)
host_inst_rate                                  91459                       # Simulator instruction rate (inst/s)
host_mem_usage                                 739396                       # Number of bytes of host memory used
host_op_rate                                    91758                       # Simulator op (including micro ops) rate (op/s)
host_seconds                                 12130.19                       # Real time elapsed on the host
host_tick_rate                               79158314                       # Simulator tick rate (ticks/s)
sim_freq                                 1000000000000                       # Frequency of simulated ticks
sim_insts                                  1109421314                       # Number of instructions simulated
sim_ops                                    1113047798                       # Number of ops (including micro ops) simulated
sim_seconds                                  0.960206                       # Number of seconds simulated
sim_ticks                                960205645500                       # Number of ticks simulated
system.cpu0.branchPred.BTBCorrect                   0                       # Number of correct BTB predictions (this stat may not work properly.
system.cpu0.branchPred.BTBHitPct            88.986725                       # BTB Hit Percentage
system.cpu0.branchPred.BTBHits              138682664                       # Number of BTB hits
system.cpu0.branchPred.BTBLookups           155846463                       # Number of BTB lookups
system.cpu0.branchPred.RASInCorrect                 0                       # Number of incorrect RAS predictions.
system.cpu0.branchPred.condIncorrect         17532748                       # Number of conditional branches incorrect
system.cpu0.branchPred.condPredicted        206039558                       # Number of conditional branches predicted
system.cpu0.branchPred.indirectHits          16893270                       # Number of indirect target hits.
system.cpu0.branchPred.indirectLookups       16975870                       # Number of indirect predictor lookups.
system.cpu0.branchPred.indirectMisses           82600                       # Number of indirect misses.
system.cpu0.branchPred.lookups              265255915                       # Number of BP lookups
system.cpu0.branchPred.usedRAS                      0                       # Number of times the RAS was used to get a target.
system.cpu0.branchPredindirectMispredicted      1850777                       # Number of mispredicted indirect branches.
system.cpu0.commit.amos                        905993                       # Number of atomic instructions committed
system.cpu0.commit.branchMispredicts          9919083                       # The number of times a branch was mispredicted
system.cpu0.commit.branches                 252642465                       # Number of branches committed
system.cpu0.commit.bw_lim_events             34429890                       # number cycles where commit BW limit reached
system.cpu0.commit.commitNonSpecStalls        2725320                       # The number of times commit has been forced to stall to communicate backwards
system.cpu0.commit.commitSquashedInsts       29510463                       # The number of squashed insts skipped by commit
system.cpu0.commit.committedInsts          1016604276                       # Number of instructions committed
system.cpu0.commit.committedOps            1017512811                       # Number of ops (including micro ops) committed
system.cpu0.commit.committed_per_cycle::samples   1710689489                       # Number of insts commited each cycle
system.cpu0.commit.committed_per_cycle::mean     0.594797                       # Number of insts commited each cycle
system.cpu0.commit.committed_per_cycle::stdev     1.394635                       # Number of insts commited each cycle
system.cpu0.commit.committed_per_cycle::underflows            0      0.00%      0.00% # Number of insts commited each cycle
system.cpu0.commit.committed_per_cycle::0   1227949438     71.78%     71.78% # Number of insts commited each cycle
system.cpu0.commit.committed_per_cycle::1    285550345     16.69%     88.47% # Number of insts commited each cycle
system.cpu0.commit.committed_per_cycle::2     74613825      4.36%     92.83% # Number of insts commited each cycle
system.cpu0.commit.committed_per_cycle::3     62939860      3.68%     96.51% # Number of insts commited each cycle
system.cpu0.commit.committed_per_cycle::4     14129411      0.83%     97.34% # Number of insts commited each cycle
system.cpu0.commit.committed_per_cycle::5      6115039      0.36%     97.70% # Number of insts commited each cycle
system.cpu0.commit.committed_per_cycle::6      3348490      0.20%     97.89% # Number of insts commited each cycle
system.cpu0.commit.committed_per_cycle::7      1613191      0.09%     97.99% # Number of insts commited each cycle
system.cpu0.commit.committed_per_cycle::8     34429890      2.01%    100.00% # Number of insts commited each cycle
system.cpu0.commit.committed_per_cycle::overflows            0      0.00%    100.00% # Number of insts commited each cycle
system.cpu0.commit.committed_per_cycle::min_value            0                       # Number of insts commited each cycle
system.cpu0.commit.committed_per_cycle::max_value            8                       # Number of insts commited each cycle
system.cpu0.commit.committed_per_cycle::total   1710689489                       # Number of insts commited each cycle
system.cpu0.commit.fp_insts                        50                       # Number of committed floating point instructions.
system.cpu0.commit.function_calls            20545365                       # Number of function calls committed.
system.cpu0.commit.int_insts                983034970                       # Number of committed integer instructions.
system.cpu0.commit.loads                    316452363                       # Number of loads committed
system.cpu0.commit.membars                    1814443                       # Number of memory barriers committed
system.cpu0.commit.op_class_0::No_OpClass      1814449      0.18%      0.18% # Class of committed instruction
system.cpu0.commit.op_class_0::IntAlu       563628324     55.39%     55.57% # Class of committed instruction
system.cpu0.commit.op_class_0::IntMult        8031691      0.79%     56.36% # Class of committed instruction
system.cpu0.commit.op_class_0::IntDiv         1811039      0.18%     56.54% # Class of committed instruction
system.cpu0.commit.op_class_0::FloatAdd             0      0.00%     56.54% # Class of committed instruction
system.cpu0.commit.op_class_0::FloatCmp             4      0.00%     56.54% # Class of committed instruction
system.cpu0.commit.op_class_0::FloatCvt            12      0.00%     56.54% # Class of committed instruction
system.cpu0.commit.op_class_0::FloatMult            0      0.00%     56.54% # Class of committed instruction
system.cpu0.commit.op_class_0::FloatMultAcc            0      0.00%     56.54% # Class of committed instruction
system.cpu0.commit.op_class_0::FloatDiv             2      0.00%     56.54% # Class of committed instruction
system.cpu0.commit.op_class_0::FloatMisc            4      0.00%     56.54% # Class of committed instruction
system.cpu0.commit.op_class_0::FloatSqrt            0      0.00%     56.54% # Class of committed instruction
system.cpu0.commit.op_class_0::SimdAdd              0      0.00%     56.54% # Class of committed instruction
system.cpu0.commit.op_class_0::SimdAddAcc            0      0.00%     56.54% # Class of committed instruction
system.cpu0.commit.op_class_0::SimdAlu              0      0.00%     56.54% # Class of committed instruction
system.cpu0.commit.op_class_0::SimdCmp              0      0.00%     56.54% # Class of committed instruction
system.cpu0.commit.op_class_0::SimdCvt              0      0.00%     56.54% # Class of committed instruction
system.cpu0.commit.op_class_0::SimdMisc             0      0.00%     56.54% # Class of committed instruction
system.cpu0.commit.op_class_0::SimdMult             0      0.00%     56.54% # Class of committed instruction
system.cpu0.commit.op_class_0::SimdMultAcc            0      0.00%     56.54% # Class of committed instruction
system.cpu0.commit.op_class_0::SimdShift            0      0.00%     56.54% # Class of committed instruction
system.cpu0.commit.op_class_0::SimdShiftAcc            0      0.00%     56.54% # Class of committed instruction
system.cpu0.commit.op_class_0::SimdDiv              0      0.00%     56.54% # Class of committed instruction
system.cpu0.commit.op_class_0::SimdSqrt             0      0.00%     56.54% # Class of committed instruction
system.cpu0.commit.op_class_0::SimdFloatAdd            0      0.00%     56.54% # Class of committed instruction
system.cpu0.commit.op_class_0::SimdFloatAlu            0      0.00%     56.54% # Class of committed instruction
system.cpu0.commit.op_class_0::SimdFloatCmp            0      0.00%     56.54% # Class of committed instruction
system.cpu0.commit.op_class_0::SimdFloatCvt            0      0.00%     56.54% # Class of committed instruction
system.cpu0.commit.op_class_0::SimdFloatDiv            0      0.00%     56.54% # Class of committed instruction
system.cpu0.commit.op_class_0::SimdFloatMisc            0      0.00%     56.54% # Class of committed instruction
system.cpu0.commit.op_class_0::SimdFloatMult            0      0.00%     56.54% # Class of committed instruction
system.cpu0.commit.op_class_0::SimdFloatMultAcc            0      0.00%     56.54% # Class of committed instruction
system.cpu0.commit.op_class_0::SimdFloatSqrt            0      0.00%     56.54% # Class of committed instruction
system.cpu0.commit.op_class_0::SimdReduceAdd            0      0.00%     56.54% # Class of committed instruction
system.cpu0.commit.op_class_0::SimdReduceAlu            0      0.00%     56.54% # Class of committed instruction
system.cpu0.commit.op_class_0::SimdReduceCmp            0      0.00%     56.54% # Class of committed instruction
system.cpu0.commit.op_class_0::SimdFloatReduceAdd            0      0.00%     56.54% # Class of committed instruction
system.cpu0.commit.op_class_0::SimdFloatReduceCmp            0      0.00%     56.54% # Class of committed instruction
system.cpu0.commit.op_class_0::SimdAes              0      0.00%     56.54% # Class of committed instruction
system.cpu0.commit.op_class_0::SimdAesMix            0      0.00%     56.54% # Class of committed instruction
system.cpu0.commit.op_class_0::SimdSha1Hash            0      0.00%     56.54% # Class of committed instruction
system.cpu0.commit.op_class_0::SimdSha1Hash2            0      0.00%     56.54% # Class of committed instruction
system.cpu0.commit.op_class_0::SimdSha256Hash            0      0.00%     56.54% # Class of committed instruction
system.cpu0.commit.op_class_0::SimdSha256Hash2            0      0.00%     56.54% # Class of committed instruction
system.cpu0.commit.op_class_0::SimdShaSigma2            0      0.00%     56.54% # Class of committed instruction
system.cpu0.commit.op_class_0::SimdShaSigma3            0      0.00%     56.54% # Class of committed instruction
system.cpu0.commit.op_class_0::SimdPredAlu            0      0.00%     56.54% # Class of committed instruction
system.cpu0.commit.op_class_0::MemRead      317358348     31.19%     87.73% # Class of committed instruction
system.cpu0.commit.op_class_0::MemWrite     124868910     12.27%    100.00% # Class of committed instruction
system.cpu0.commit.op_class_0::FloatMemRead            8      0.00%    100.00% # Class of committed instruction
system.cpu0.commit.op_class_0::FloatMemWrite           20      0.00%    100.00% # Class of committed instruction
system.cpu0.commit.op_class_0::IprAccess            0      0.00%    100.00% # Class of committed instruction
system.cpu0.commit.op_class_0::InstPrefetch            0      0.00%    100.00% # Class of committed instruction
system.cpu0.commit.op_class_0::total       1017512811                       # Class of committed instruction
system.cpu0.commit.refs                     442227286                       # Number of memory references committed
system.cpu0.commit.swp_count                        0                       # Number of s/w prefetches committed
system.cpu0.commit.vec_insts                        0                       # Number of committed Vector instructions.
system.cpu0.committedInsts                 1016604276                       # Number of Instructions Simulated
system.cpu0.committedOps                   1017512811                       # Number of Ops (including micro ops) Simulated
system.cpu0.cpi                              1.872367                       # CPI: Cycles Per Instruction
system.cpu0.cpi_total                        1.872367                       # CPI: Total CPI of All Threads
system.cpu0.decode.BlockedCycles            198908290                       # Number of cycles decode is blocked
system.cpu0.decode.BranchMispred              7617866                       # Number of times decode detected a branch misprediction
system.cpu0.decode.BranchResolved           134221114                       # Number of times decode resolved a branch
system.cpu0.decode.DecodedInsts            1071937708                       # Number of instructions handled by decode
system.cpu0.decode.IdleCycles               753629900                       # Number of cycles decode is idle
system.cpu0.decode.RunCycles                756263087                       # Number of cycles decode is running
system.cpu0.decode.SquashCycles               9928862                       # Number of cycles decode is squashing
system.cpu0.decode.SquashedInsts              6068794                       # Number of squashed instructions handled by decode
system.cpu0.decode.UnblockCycles              2872860                       # Number of cycles decode is unblocking
system.cpu0.dtb.accesses                            0                       # DTB accesses
system.cpu0.dtb.hits                                0                       # DTB hits
system.cpu0.dtb.misses                              0                       # DTB misses
system.cpu0.dtb.read_accesses                       0                       # DTB read accesses
system.cpu0.dtb.read_hits                           0                       # DTB read hits
system.cpu0.dtb.read_misses                         0                       # DTB read misses
system.cpu0.dtb.write_accesses                      0                       # DTB write accesses
system.cpu0.dtb.write_hits                          0                       # DTB write hits
system.cpu0.dtb.write_misses                        0                       # DTB write misses
system.cpu0.fetch.Branches                  265255915                       # Number of branches that fetch encountered
system.cpu0.fetch.CacheLines                176986804                       # Number of cache lines fetched
system.cpu0.fetch.Cycles                    960239053                       # Number of cycles fetch has run and was not squashing or blocked
system.cpu0.fetch.IcacheSquashes              5724144                       # Number of outstanding Icache misses that were squashed
system.cpu0.fetch.IcacheWaitRetryStallCycles           87                       # Number of stall cycles due to full MSHR
system.cpu0.fetch.Insts                    1085861590                       # Number of instructions fetch has processed
system.cpu0.fetch.MiscStallCycles                  12                       # Number of cycles fetch has spent waiting on interrupts, or bad addresses, or out of MSHRs
system.cpu0.fetch.PendingTrapStallCycles           12                       # Number of stall cycles due to pending traps
system.cpu0.fetch.SquashCycles               35085058                       # Number of cycles fetch has spent squashing
system.cpu0.fetch.branchRate                 0.139355                       # Number of branch fetches per cycle
system.cpu0.fetch.icacheStallCycles         743821306                       # Number of cycles fetch is stalled on an Icache miss
system.cpu0.fetch.predictedBranches         155575934                       # Number of branches that fetch has predicted taken
system.cpu0.fetch.rate                       0.570468                       # Number of inst fetches per cycle
system.cpu0.fetch.rateDist::samples        1721602999                       # Number of instructions fetched each cycle (Total)
system.cpu0.fetch.rateDist::mean             0.631255                       # Number of instructions fetched each cycle (Total)
system.cpu0.fetch.rateDist::stdev            0.895483                       # Number of instructions fetched each cycle (Total)
system.cpu0.fetch.rateDist::underflows              0      0.00%      0.00% # Number of instructions fetched each cycle (Total)
system.cpu0.fetch.rateDist::0               940461552     54.63%     54.63% # Number of instructions fetched each cycle (Total)
system.cpu0.fetch.rateDist::1               589998083     34.27%     88.90% # Number of instructions fetched each cycle (Total)
system.cpu0.fetch.rateDist::2               112238348      6.52%     95.42% # Number of instructions fetched each cycle (Total)
system.cpu0.fetch.rateDist::3                60541173      3.52%     98.93% # Number of instructions fetched each cycle (Total)
system.cpu0.fetch.rateDist::4                10612651      0.62%     99.55% # Number of instructions fetched each cycle (Total)
system.cpu0.fetch.rateDist::5                 3902526      0.23%     99.78% # Number of instructions fetched each cycle (Total)
system.cpu0.fetch.rateDist::6                  133637      0.01%     99.78% # Number of instructions fetched each cycle (Total)
system.cpu0.fetch.rateDist::7                 1813031      0.11%     99.89% # Number of instructions fetched each cycle (Total)
system.cpu0.fetch.rateDist::8                 1901998      0.11%    100.00% # Number of instructions fetched each cycle (Total)
system.cpu0.fetch.rateDist::overflows               0      0.00%    100.00% # Number of instructions fetched each cycle (Total)
system.cpu0.fetch.rateDist::min_value               0                       # Number of instructions fetched each cycle (Total)
system.cpu0.fetch.rateDist::max_value               8                       # Number of instructions fetched each cycle (Total)
system.cpu0.fetch.rateDist::total          1721602999                       # Number of instructions fetched each cycle (Total)
system.cpu0.fp_regfile_reads                       49                       # number of floating regfile reads
system.cpu0.fp_regfile_writes                      24                       # number of floating regfile writes
system.cpu0.idleCycles                      181853419                       # Total number of cycles that the CPU has spent unscheduled due to idling
system.cpu0.iew.branchMispredicts            10049920                       # Number of branch mispredicts detected at execute
system.cpu0.iew.exec_branches               255288212                       # Number of branches executed
system.cpu0.iew.exec_nop                            0                       # number of nop insts executed
system.cpu0.iew.exec_rate                    0.547240                       # Inst execution rate
system.cpu0.iew.exec_refs                   458663482                       # number of memory reference insts executed
system.cpu0.iew.exec_stores                 127408971                       # Number of stores executed
system.cpu0.iew.exec_swp                            0                       # number of swp insts executed
system.cpu0.iew.iewBlockCycles              155640194                       # Number of cycles IEW is blocking
system.cpu0.iew.iewDispLoadInsts            331632548                       # Number of dispatched load instructions
system.cpu0.iew.iewDispNonSpecInsts            911376                       # Number of dispatched non-speculative instructions
system.cpu0.iew.iewDispSquashedInsts          6805294                       # Number of squashed instructions skipped by dispatch
system.cpu0.iew.iewDispStoreInsts           128349119                       # Number of dispatched store instructions
system.cpu0.iew.iewDispatchedInsts         1047009860                       # Number of instructions dispatched to IQ
system.cpu0.iew.iewExecLoadInsts            331254511                       # Number of load instructions executed
system.cpu0.iew.iewExecSquashedInsts          6226594                       # Number of squashed instructions skipped in execute
system.cpu0.iew.iewExecutedInsts           1041648221                       # Number of executed instructions
system.cpu0.iew.iewIQFullEvents                925634                       # Number of times the IQ has become full, causing a stall
system.cpu0.iew.iewIdleCycles                       0                       # Number of cycles IEW is idle
system.cpu0.iew.iewLSQFullEvents              3652768                       # Number of times the LSQ has become full, causing a stall
system.cpu0.iew.iewSquashCycles               9928862                       # Number of cycles IEW is squashing
system.cpu0.iew.iewUnblockCycles              5559042                       # Number of cycles IEW is unblocking
system.cpu0.iew.lsq.thread0.blockedLoads            0                       # Number of blocked loads due to partial load-store forwarding
system.cpu0.iew.lsq.thread0.cacheBlocked       178591                       # Number of times an access to memory failed due to the cache being blocked
system.cpu0.iew.lsq.thread0.forwLoads        19956150                       # Number of loads that had data forwarded from stores
system.cpu0.iew.lsq.thread0.ignoredResponses        15302                       # Number of memory responses ignored because the instruction is squashed
system.cpu0.iew.lsq.thread0.invAddrLoads            0                       # Number of loads ignored due to an invalid address
system.cpu0.iew.lsq.thread0.invAddrSwpfs            0                       # Number of software prefetches ignored due to an invalid address
system.cpu0.iew.lsq.thread0.memOrderViolation        10284                       # Number of memory ordering violations
system.cpu0.iew.lsq.thread0.rescheduledLoads      3697883                       # Number of loads that were rescheduled
system.cpu0.iew.lsq.thread0.squashedLoads     15180185                       # Number of loads squashed
system.cpu0.iew.lsq.thread0.squashedStores      2574195                       # Number of stores squashed
system.cpu0.iew.memOrderViolationEvents         10284                       # Number of memory order violations
system.cpu0.iew.predictedNotTakenIncorrect      1144734                       # Number of branches that were predicted not taken incorrectly
system.cpu0.iew.predictedTakenIncorrect       8905186                       # Number of branches that were predicted taken incorrectly
system.cpu0.iew.wb_consumers                458909808                       # num instructions consuming a value
system.cpu0.iew.wb_count                   1031653788                       # cumulative count of insts written-back
system.cpu0.iew.wb_fanout                    0.825817                       # average fanout of values written-back
system.cpu0.iew.wb_producers                378975507                       # num instructions producing a value
system.cpu0.iew.wb_rate                      0.541990                       # insts written-back per cycle
system.cpu0.iew.wb_sent                    1031754253                       # cumulative count of insts sent to commit
system.cpu0.int_regfile_reads              1275564909                       # number of integer regfile reads
system.cpu0.int_regfile_writes              657602274                       # number of integer regfile writes
system.cpu0.ipc                              0.534083                       # IPC: Instructions Per Cycle
system.cpu0.ipc_total                        0.534083                       # IPC: Total IPC of All Threads
system.cpu0.iq.FU_type_0::No_OpClass          1816081      0.17%      0.17% # Type of FU issued
system.cpu0.iq.FU_type_0::IntAlu            573199755     54.70%     54.87% # Type of FU issued
system.cpu0.iq.FU_type_0::IntMult             8139821      0.78%     55.65% # Type of FU issued
system.cpu0.iq.FU_type_0::IntDiv              1811749      0.17%     55.82% # Type of FU issued
system.cpu0.iq.FU_type_0::FloatAdd                  0      0.00%     55.82% # Type of FU issued
system.cpu0.iq.FU_type_0::FloatCmp                  4      0.00%     55.82% # Type of FU issued
system.cpu0.iq.FU_type_0::FloatCvt                 12      0.00%     55.82% # Type of FU issued
system.cpu0.iq.FU_type_0::FloatMult                 0      0.00%     55.82% # Type of FU issued
system.cpu0.iq.FU_type_0::FloatMultAcc              1      0.00%     55.82% # Type of FU issued
system.cpu0.iq.FU_type_0::FloatDiv                  2      0.00%     55.82% # Type of FU issued
system.cpu0.iq.FU_type_0::FloatMisc                 4      0.00%     55.82% # Type of FU issued
system.cpu0.iq.FU_type_0::FloatSqrt                 0      0.00%     55.82% # Type of FU issued
system.cpu0.iq.FU_type_0::SimdAdd                   0      0.00%     55.82% # Type of FU issued
system.cpu0.iq.FU_type_0::SimdAddAcc                0      0.00%     55.82% # Type of FU issued
system.cpu0.iq.FU_type_0::SimdAlu                   0      0.00%     55.82% # Type of FU issued
system.cpu0.iq.FU_type_0::SimdCmp                   0      0.00%     55.82% # Type of FU issued
system.cpu0.iq.FU_type_0::SimdCvt                   0      0.00%     55.82% # Type of FU issued
system.cpu0.iq.FU_type_0::SimdMisc                  0      0.00%     55.82% # Type of FU issued
system.cpu0.iq.FU_type_0::SimdMult                  0      0.00%     55.82% # Type of FU issued
system.cpu0.iq.FU_type_0::SimdMultAcc               0      0.00%     55.82% # Type of FU issued
system.cpu0.iq.FU_type_0::SimdShift                 0      0.00%     55.82% # Type of FU issued
system.cpu0.iq.FU_type_0::SimdShiftAcc              0      0.00%     55.82% # Type of FU issued
system.cpu0.iq.FU_type_0::SimdDiv                   0      0.00%     55.82% # Type of FU issued
system.cpu0.iq.FU_type_0::SimdSqrt                  0      0.00%     55.82% # Type of FU issued
system.cpu0.iq.FU_type_0::SimdFloatAdd              0      0.00%     55.82% # Type of FU issued
system.cpu0.iq.FU_type_0::SimdFloatAlu              0      0.00%     55.82% # Type of FU issued
system.cpu0.iq.FU_type_0::SimdFloatCmp              0      0.00%     55.82% # Type of FU issued
system.cpu0.iq.FU_type_0::SimdFloatCvt              0      0.00%     55.82% # Type of FU issued
system.cpu0.iq.FU_type_0::SimdFloatDiv              0      0.00%     55.82% # Type of FU issued
system.cpu0.iq.FU_type_0::SimdFloatMisc             0      0.00%     55.82% # Type of FU issued
system.cpu0.iq.FU_type_0::SimdFloatMult             0      0.00%     55.82% # Type of FU issued
system.cpu0.iq.FU_type_0::SimdFloatMultAcc            0      0.00%     55.82% # Type of FU issued
system.cpu0.iq.FU_type_0::SimdFloatSqrt             0      0.00%     55.82% # Type of FU issued
system.cpu0.iq.FU_type_0::SimdReduceAdd             0      0.00%     55.82% # Type of FU issued
system.cpu0.iq.FU_type_0::SimdReduceAlu             0      0.00%     55.82% # Type of FU issued
system.cpu0.iq.FU_type_0::SimdReduceCmp             0      0.00%     55.82% # Type of FU issued
system.cpu0.iq.FU_type_0::SimdFloatReduceAdd            0      0.00%     55.82% # Type of FU issued
system.cpu0.iq.FU_type_0::SimdFloatReduceCmp            0      0.00%     55.82% # Type of FU issued
system.cpu0.iq.FU_type_0::SimdAes                   0      0.00%     55.82% # Type of FU issued
system.cpu0.iq.FU_type_0::SimdAesMix                0      0.00%     55.82% # Type of FU issued
system.cpu0.iq.FU_type_0::SimdSha1Hash              0      0.00%     55.82% # Type of FU issued
system.cpu0.iq.FU_type_0::SimdSha1Hash2             0      0.00%     55.82% # Type of FU issued
system.cpu0.iq.FU_type_0::SimdSha256Hash            0      0.00%     55.82% # Type of FU issued
system.cpu0.iq.FU_type_0::SimdSha256Hash2            0      0.00%     55.82% # Type of FU issued
system.cpu0.iq.FU_type_0::SimdShaSigma2             0      0.00%     55.82% # Type of FU issued
system.cpu0.iq.FU_type_0::SimdShaSigma3             0      0.00%     55.82% # Type of FU issued
system.cpu0.iq.FU_type_0::SimdPredAlu               0      0.00%     55.82% # Type of FU issued
system.cpu0.iq.FU_type_0::MemRead           336152424     32.08%     87.90% # Type of FU issued
system.cpu0.iq.FU_type_0::MemWrite          126754931     12.10%    100.00% # Type of FU issued
system.cpu0.iq.FU_type_0::FloatMemRead              9      0.00%    100.00% # Type of FU issued
system.cpu0.iq.FU_type_0::FloatMemWrite            22      0.00%    100.00% # Type of FU issued
system.cpu0.iq.FU_type_0::IprAccess                 0      0.00%    100.00% # Type of FU issued
system.cpu0.iq.FU_type_0::InstPrefetch              0      0.00%    100.00% # Type of FU issued
system.cpu0.iq.FU_type_0::total            1047874815                       # Type of FU issued
system.cpu0.iq.fp_alu_accesses                     56                       # Number of floating point alu accesses
system.cpu0.iq.fp_inst_queue_reads                110                       # Number of floating instruction queue reads
system.cpu0.iq.fp_inst_queue_wakeup_accesses           54                       # Number of floating instruction queue wakeup accesses
system.cpu0.iq.fp_inst_queue_writes                58                       # Number of floating instruction queue writes
system.cpu0.iq.fu_busy_cnt                    1432321                       # FU busy when requested
system.cpu0.iq.fu_busy_rate                  0.001367                       # FU busy rate (busy events/executed inst)
system.cpu0.iq.fu_full::No_OpClass                  0      0.00%      0.00% # attempts to use FU when none available
system.cpu0.iq.fu_full::IntAlu                 290461     20.28%     20.28% # attempts to use FU when none available
system.cpu0.iq.fu_full::IntMult                     0      0.00%     20.28% # attempts to use FU when none available
system.cpu0.iq.fu_full::IntDiv                      0      0.00%     20.28% # attempts to use FU when none available
system.cpu0.iq.fu_full::FloatAdd                    0      0.00%     20.28% # attempts to use FU when none available
system.cpu0.iq.fu_full::FloatCmp                    0      0.00%     20.28% # attempts to use FU when none available
system.cpu0.iq.fu_full::FloatCvt                    0      0.00%     20.28% # attempts to use FU when none available
system.cpu0.iq.fu_full::FloatMult                   0      0.00%     20.28% # attempts to use FU when none available
system.cpu0.iq.fu_full::FloatMultAcc                0      0.00%     20.28% # attempts to use FU when none available
system.cpu0.iq.fu_full::FloatDiv                    0      0.00%     20.28% # attempts to use FU when none available
system.cpu0.iq.fu_full::FloatMisc                   0      0.00%     20.28% # attempts to use FU when none available
system.cpu0.iq.fu_full::FloatSqrt                   0      0.00%     20.28% # attempts to use FU when none available
system.cpu0.iq.fu_full::SimdAdd                     0      0.00%     20.28% # attempts to use FU when none available
system.cpu0.iq.fu_full::SimdAddAcc                  0      0.00%     20.28% # attempts to use FU when none available
system.cpu0.iq.fu_full::SimdAlu                     0      0.00%     20.28% # attempts to use FU when none available
system.cpu0.iq.fu_full::SimdCmp                     0      0.00%     20.28% # attempts to use FU when none available
system.cpu0.iq.fu_full::SimdCvt                     0      0.00%     20.28% # attempts to use FU when none available
system.cpu0.iq.fu_full::SimdMisc                    0      0.00%     20.28% # attempts to use FU when none available
system.cpu0.iq.fu_full::SimdMult                    0      0.00%     20.28% # attempts to use FU when none available
system.cpu0.iq.fu_full::SimdMultAcc                 0      0.00%     20.28% # attempts to use FU when none available
system.cpu0.iq.fu_full::SimdShift                   0      0.00%     20.28% # attempts to use FU when none available
system.cpu0.iq.fu_full::SimdShiftAcc                0      0.00%     20.28% # attempts to use FU when none available
system.cpu0.iq.fu_full::SimdDiv                     0      0.00%     20.28% # attempts to use FU when none available
system.cpu0.iq.fu_full::SimdSqrt                    0      0.00%     20.28% # attempts to use FU when none available
system.cpu0.iq.fu_full::SimdFloatAdd                0      0.00%     20.28% # attempts to use FU when none available
system.cpu0.iq.fu_full::SimdFloatAlu                0      0.00%     20.28% # attempts to use FU when none available
system.cpu0.iq.fu_full::SimdFloatCmp                0      0.00%     20.28% # attempts to use FU when none available
system.cpu0.iq.fu_full::SimdFloatCvt                0      0.00%     20.28% # attempts to use FU when none available
system.cpu0.iq.fu_full::SimdFloatDiv                0      0.00%     20.28% # attempts to use FU when none available
system.cpu0.iq.fu_full::SimdFloatMisc               0      0.00%     20.28% # attempts to use FU when none available
system.cpu0.iq.fu_full::SimdFloatMult               0      0.00%     20.28% # attempts to use FU when none available
system.cpu0.iq.fu_full::SimdFloatMultAcc            0      0.00%     20.28% # attempts to use FU when none available
system.cpu0.iq.fu_full::SimdFloatSqrt               0      0.00%     20.28% # attempts to use FU when none available
system.cpu0.iq.fu_full::SimdReduceAdd               0      0.00%     20.28% # attempts to use FU when none available
system.cpu0.iq.fu_full::SimdReduceAlu               0      0.00%     20.28% # attempts to use FU when none available
system.cpu0.iq.fu_full::SimdReduceCmp               0      0.00%     20.28% # attempts to use FU when none available
system.cpu0.iq.fu_full::SimdFloatReduceAdd            0      0.00%     20.28% # attempts to use FU when none available
system.cpu0.iq.fu_full::SimdFloatReduceCmp            0      0.00%     20.28% # attempts to use FU when none available
system.cpu0.iq.fu_full::SimdAes                     0      0.00%     20.28% # attempts to use FU when none available
system.cpu0.iq.fu_full::SimdAesMix                  0      0.00%     20.28% # attempts to use FU when none available
system.cpu0.iq.fu_full::SimdSha1Hash                0      0.00%     20.28% # attempts to use FU when none available
system.cpu0.iq.fu_full::SimdSha1Hash2               0      0.00%     20.28% # attempts to use FU when none available
system.cpu0.iq.fu_full::SimdSha256Hash              0      0.00%     20.28% # attempts to use FU when none available
system.cpu0.iq.fu_full::SimdSha256Hash2             0      0.00%     20.28% # attempts to use FU when none available
system.cpu0.iq.fu_full::SimdShaSigma2               0      0.00%     20.28% # attempts to use FU when none available
system.cpu0.iq.fu_full::SimdShaSigma3               0      0.00%     20.28% # attempts to use FU when none available
system.cpu0.iq.fu_full::SimdPredAlu                 0      0.00%     20.28% # attempts to use FU when none available
system.cpu0.iq.fu_full::MemRead                984375     68.73%     89.00% # attempts to use FU when none available
system.cpu0.iq.fu_full::MemWrite               157483     10.99%    100.00% # attempts to use FU when none available
system.cpu0.iq.fu_full::FloatMemRead                0      0.00%    100.00% # attempts to use FU when none available
system.cpu0.iq.fu_full::FloatMemWrite               2      0.00%    100.00% # attempts to use FU when none available
system.cpu0.iq.fu_full::IprAccess                   0      0.00%    100.00% # attempts to use FU when none available
system.cpu0.iq.fu_full::InstPrefetch                0      0.00%    100.00% # attempts to use FU when none available
system.cpu0.iq.int_alu_accesses            1047490999                       # Number of integer alu accesses
system.cpu0.iq.int_inst_queue_reads        3818892372                       # Number of integer instruction queue reads
system.cpu0.iq.int_inst_queue_wakeup_accesses   1031653734                       # Number of integer instruction queue wakeup accesses
system.cpu0.iq.int_inst_queue_writes       1076515918                       # Number of integer instruction queue writes
system.cpu0.iq.iqInstsAdded                1044283876                       # Number of instructions added to the IQ (excludes non-spec)
system.cpu0.iq.iqInstsIssued               1047874815                       # Number of instructions issued
system.cpu0.iq.iqNonSpecInstsAdded            2725984                       # Number of non-speculative instructions added to the IQ
system.cpu0.iq.iqSquashedInstsExamined       29497042                       # Number of squashed instructions iterated over during squash; mainly for profiling
system.cpu0.iq.iqSquashedInstsIssued           107532                       # Number of squashed instructions issued
system.cpu0.iq.iqSquashedNonSpecRemoved           664                       # Number of squashed non-spec instructions that were removed
system.cpu0.iq.iqSquashedOperandsExamined     15970577                       # Number of squashed operands that are examined and possibly removed from graph
system.cpu0.iq.issued_per_cycle::samples   1721602999                       # Number of insts issued each cycle
system.cpu0.iq.issued_per_cycle::mean        0.608662                       # Number of insts issued each cycle
system.cpu0.iq.issued_per_cycle::stdev       0.848982                       # Number of insts issued each cycle
system.cpu0.iq.issued_per_cycle::underflows            0      0.00%      0.00% # Number of insts issued each cycle
system.cpu0.iq.issued_per_cycle::0          966076623     56.11%     56.11% # Number of insts issued each cycle
system.cpu0.iq.issued_per_cycle::1          548694579     31.87%     87.99% # Number of insts issued each cycle
system.cpu0.iq.issued_per_cycle::2          144830567      8.41%     96.40% # Number of insts issued each cycle
system.cpu0.iq.issued_per_cycle::3           47558690      2.76%     99.16% # Number of insts issued each cycle
system.cpu0.iq.issued_per_cycle::4            9071317      0.53%     99.69% # Number of insts issued each cycle
system.cpu0.iq.issued_per_cycle::5            2743354      0.16%     99.85% # Number of insts issued each cycle
system.cpu0.iq.issued_per_cycle::6            1729627      0.10%     99.95% # Number of insts issued each cycle
system.cpu0.iq.issued_per_cycle::7             722704      0.04%     99.99% # Number of insts issued each cycle
system.cpu0.iq.issued_per_cycle::8             175538      0.01%    100.00% # Number of insts issued each cycle
system.cpu0.iq.issued_per_cycle::overflows            0      0.00%    100.00% # Number of insts issued each cycle
system.cpu0.iq.issued_per_cycle::min_value            0                       # Number of insts issued each cycle
system.cpu0.iq.issued_per_cycle::max_value            8                       # Number of insts issued each cycle
system.cpu0.iq.issued_per_cycle::total     1721602999                       # Number of insts issued each cycle
system.cpu0.iq.rate                          0.550512                       # Inst issue rate
system.cpu0.iq.vec_alu_accesses                     0                       # Number of vector alu accesses
system.cpu0.iq.vec_inst_queue_reads                 0                       # Number of vector instruction queue reads
system.cpu0.iq.vec_inst_queue_wakeup_accesses            0                       # Number of vector instruction queue wakeup accesses
system.cpu0.iq.vec_inst_queue_writes                0                       # Number of vector instruction queue writes
system.cpu0.itb.accesses                            0                       # DTB accesses
system.cpu0.itb.hits                                0                       # DTB hits
system.cpu0.itb.misses                              0                       # DTB misses
system.cpu0.itb.read_accesses                       0                       # DTB read accesses
system.cpu0.itb.read_hits                           0                       # DTB read hits
system.cpu0.itb.read_misses                         0                       # DTB read misses
system.cpu0.itb.write_accesses                      0                       # DTB write accesses
system.cpu0.itb.write_hits                          0                       # DTB write hits
system.cpu0.itb.write_misses                        0                       # DTB write misses
system.cpu0.memDep0.conflictingLoads         15083128                       # Number of conflicting loads.
system.cpu0.memDep0.conflictingStores         1128063                       # Number of conflicting stores.
system.cpu0.memDep0.insertedLoads           331632548                       # Number of loads inserted to the mem dependence unit.
system.cpu0.memDep0.insertedStores          128349119                       # Number of stores inserted to the mem dependence unit.
system.cpu0.misc_regfile_reads                   1662                       # number of misc regfile reads
system.cpu0.misc_regfile_writes                    22                       # number of misc regfile writes
system.cpu0.numCycles                      1903456418                       # number of cpu cycles simulated
system.cpu0.numWorkItemsCompleted                   0                       # number of work items this cpu completed
system.cpu0.numWorkItemsStarted                     0                       # number of work items this cpu started
system.cpu0.quiesceCycles                    16954881                       # Total number of cycles that CPU has spent quiesced or waiting for an interrupt
system.cpu0.rename.BlockCycles              168592873                       # Number of cycles rename is blocking
system.cpu0.rename.CommittedMaps            647551057                       # Number of HB maps that are committed
system.cpu0.rename.IQFullEvents               6879896                       # Number of times rename has blocked due to IQ full
system.cpu0.rename.IdleCycles               766149695                       # Number of cycles rename is idle
system.cpu0.rename.LQFullEvents               9076559                       # Number of times rename has blocked due to LQ full
system.cpu0.rename.ROBFullEvents                17597                       # Number of times rename has blocked due to ROB full
system.cpu0.rename.RenameLookups           1301328197                       # Number of register rename lookups that rename has made
system.cpu0.rename.RenamedInsts            1062611141                       # Number of instructions processed by rename
system.cpu0.rename.RenamedOperands          683085340                       # Number of destination operands rename has renamed
system.cpu0.rename.RunCycles                746002820                       # Number of cycles rename is running
system.cpu0.rename.SQFullEvents              14810922                       # Number of times rename has blocked due to SQ full
system.cpu0.rename.SquashCycles               9928862                       # Number of cycles rename is squashing
system.cpu0.rename.UnblockCycles             30586573                       # Number of cycles rename is unblocking
system.cpu0.rename.UndoneMaps                35534274                       # Number of HB maps that are undone due to squashing
system.cpu0.rename.fp_rename_lookups               49                       # Number of floating rename lookups
system.cpu0.rename.int_rename_lookups      1301328148                       # Number of integer rename lookups
system.cpu0.rename.serializeStallCycles        342176                       # count of cycles rename stalled for serializing inst
system.cpu0.rename.serializingInsts              5057                       # count of serializing insts renamed
system.cpu0.rename.skidInsts                 14802576                       # count of insts added to the skid buffer
system.cpu0.rename.tempSerializingInsts          5057                       # count of temporary serializing insts renamed
system.cpu0.rob.rob_reads                  2723261787                       # The number of ROB reads
system.cpu0.rob.rob_writes                 2104972410                       # The number of ROB writes
system.cpu0.timesIdled                       26479688                       # Number of times that the entire CPU went into an idle state and unscheduled itself
system.cpu0.workload.numSyscalls                 1628                       # Number of system calls
system.cpu1.branchPred.BTBCorrect                   0                       # Number of correct BTB predictions (this stat may not work properly.
system.cpu1.branchPred.BTBHitPct            83.076609                       # BTB Hit Percentage
system.cpu1.branchPred.BTBHits                5981638                       # Number of BTB hits
system.cpu1.branchPred.BTBLookups             7200147                       # Number of BTB lookups
system.cpu1.branchPred.RASInCorrect                 0                       # Number of incorrect RAS predictions.
system.cpu1.branchPred.condIncorrect           781404                       # Number of conditional branches incorrect
system.cpu1.branchPred.condPredicted          9851771                       # Number of conditional branches predicted
system.cpu1.branchPred.indirectHits            227268                       # Number of indirect target hits.
system.cpu1.branchPred.indirectLookups         237313                       # Number of indirect predictor lookups.
system.cpu1.branchPred.indirectMisses           10045                       # Number of indirect misses.
system.cpu1.branchPred.lookups               11176814                       # Number of BP lookups
system.cpu1.branchPred.usedRAS                      0                       # Number of times the RAS was used to get a target.
system.cpu1.branchPredindirectMispredicted        13432                       # Number of mispredicted indirect branches.
system.cpu1.commit.amos                        905784                       # Number of atomic instructions committed
system.cpu1.commit.branchMispredicts           637843                       # The number of times a branch was mispredicted
system.cpu1.commit.branches                   8768570                       # Number of branches committed
system.cpu1.commit.bw_lim_events               831820                       # number cycles where commit BW limit reached
system.cpu1.commit.commitNonSpecStalls        2717996                       # The number of times commit has been forced to stall to communicate backwards
system.cpu1.commit.commitSquashedInsts        4965055                       # The number of squashed insts skipped by commit
system.cpu1.commit.committedInsts            37213422                       # Number of instructions committed
system.cpu1.commit.committedOps              38119380                       # Number of ops (including micro ops) committed
system.cpu1.commit.committed_per_cycle::samples    215147544                       # Number of insts commited each cycle
system.cpu1.commit.committed_per_cycle::mean     0.177178                       # Number of insts commited each cycle
system.cpu1.commit.committed_per_cycle::stdev     0.817346                       # Number of insts commited each cycle
system.cpu1.commit.committed_per_cycle::underflows            0      0.00%      0.00% # Number of insts commited each cycle
system.cpu1.commit.committed_per_cycle::0    199180595     92.58%     92.58% # Number of insts commited each cycle
system.cpu1.commit.committed_per_cycle::1      7722551      3.59%     96.17% # Number of insts commited each cycle
system.cpu1.commit.committed_per_cycle::2      2799258      1.30%     97.47% # Number of insts commited each cycle
system.cpu1.commit.committed_per_cycle::3      2545728      1.18%     98.65% # Number of insts commited each cycle
system.cpu1.commit.committed_per_cycle::4       863639      0.40%     99.05% # Number of insts commited each cycle
system.cpu1.commit.committed_per_cycle::5       244068      0.11%     99.17% # Number of insts commited each cycle
system.cpu1.commit.committed_per_cycle::6       887522      0.41%     99.58% # Number of insts commited each cycle
system.cpu1.commit.committed_per_cycle::7        72363      0.03%     99.61% # Number of insts commited each cycle
system.cpu1.commit.committed_per_cycle::8       831820      0.39%    100.00% # Number of insts commited each cycle
system.cpu1.commit.committed_per_cycle::overflows            0      0.00%    100.00% # Number of insts commited each cycle
system.cpu1.commit.committed_per_cycle::min_value            0                       # Number of insts commited each cycle
system.cpu1.commit.committed_per_cycle::max_value            8                       # Number of insts commited each cycle
system.cpu1.commit.committed_per_cycle::total    215147544                       # Number of insts commited each cycle
system.cpu1.commit.fp_insts                        12                       # Number of committed floating point instructions.
system.cpu1.commit.function_calls              378003                       # Number of function calls committed.
system.cpu1.commit.int_insts                 35829332                       # Number of committed integer instructions.
system.cpu1.commit.loads                     10301255                       # Number of loads committed
system.cpu1.commit.membars                    1811642                       # Number of memory barriers committed
system.cpu1.commit.op_class_0::No_OpClass      1811642      4.75%      4.75% # Class of committed instruction
system.cpu1.commit.op_class_0::IntAlu        22372137     58.69%     63.44% # Class of committed instruction
system.cpu1.commit.op_class_0::IntMult             43      0.00%     63.44% # Class of committed instruction
system.cpu1.commit.op_class_0::IntDiv              86      0.00%     63.44% # Class of committed instruction
system.cpu1.commit.op_class_0::FloatAdd             0      0.00%     63.44% # Class of committed instruction
system.cpu1.commit.op_class_0::FloatCmp             0      0.00%     63.44% # Class of committed instruction
system.cpu1.commit.op_class_0::FloatCvt             0      0.00%     63.44% # Class of committed instruction
system.cpu1.commit.op_class_0::FloatMult            0      0.00%     63.44% # Class of committed instruction
system.cpu1.commit.op_class_0::FloatMultAcc            0      0.00%     63.44% # Class of committed instruction
system.cpu1.commit.op_class_0::FloatDiv             0      0.00%     63.44% # Class of committed instruction
system.cpu1.commit.op_class_0::FloatMisc            0      0.00%     63.44% # Class of committed instruction
system.cpu1.commit.op_class_0::FloatSqrt            0      0.00%     63.44% # Class of committed instruction
system.cpu1.commit.op_class_0::SimdAdd              0      0.00%     63.44% # Class of committed instruction
system.cpu1.commit.op_class_0::SimdAddAcc            0      0.00%     63.44% # Class of committed instruction
system.cpu1.commit.op_class_0::SimdAlu              0      0.00%     63.44% # Class of committed instruction
system.cpu1.commit.op_class_0::SimdCmp              0      0.00%     63.44% # Class of committed instruction
system.cpu1.commit.op_class_0::SimdCvt              0      0.00%     63.44% # Class of committed instruction
system.cpu1.commit.op_class_0::SimdMisc             0      0.00%     63.44% # Class of committed instruction
system.cpu1.commit.op_class_0::SimdMult             0      0.00%     63.44% # Class of committed instruction
system.cpu1.commit.op_class_0::SimdMultAcc            0      0.00%     63.44% # Class of committed instruction
system.cpu1.commit.op_class_0::SimdShift            0      0.00%     63.44% # Class of committed instruction
system.cpu1.commit.op_class_0::SimdShiftAcc            0      0.00%     63.44% # Class of committed instruction
system.cpu1.commit.op_class_0::SimdDiv              0      0.00%     63.44% # Class of committed instruction
system.cpu1.commit.op_class_0::SimdSqrt             0      0.00%     63.44% # Class of committed instruction
system.cpu1.commit.op_class_0::SimdFloatAdd            0      0.00%     63.44% # Class of committed instruction
system.cpu1.commit.op_class_0::SimdFloatAlu            0      0.00%     63.44% # Class of committed instruction
system.cpu1.commit.op_class_0::SimdFloatCmp            0      0.00%     63.44% # Class of committed instruction
system.cpu1.commit.op_class_0::SimdFloatCvt            0      0.00%     63.44% # Class of committed instruction
system.cpu1.commit.op_class_0::SimdFloatDiv            0      0.00%     63.44% # Class of committed instruction
system.cpu1.commit.op_class_0::SimdFloatMisc            0      0.00%     63.44% # Class of committed instruction
system.cpu1.commit.op_class_0::SimdFloatMult            0      0.00%     63.44% # Class of committed instruction
system.cpu1.commit.op_class_0::SimdFloatMultAcc            0      0.00%     63.44% # Class of committed instruction
system.cpu1.commit.op_class_0::SimdFloatSqrt            0      0.00%     63.44% # Class of committed instruction
system.cpu1.commit.op_class_0::SimdReduceAdd            0      0.00%     63.44% # Class of committed instruction
system.cpu1.commit.op_class_0::SimdReduceAlu            0      0.00%     63.44% # Class of committed instruction
system.cpu1.commit.op_class_0::SimdReduceCmp            0      0.00%     63.44% # Class of committed instruction
system.cpu1.commit.op_class_0::SimdFloatReduceAdd            0      0.00%     63.44% # Class of committed instruction
system.cpu1.commit.op_class_0::SimdFloatReduceCmp            0      0.00%     63.44% # Class of committed instruction
system.cpu1.commit.op_class_0::SimdAes              0      0.00%     63.44% # Class of committed instruction
system.cpu1.commit.op_class_0::SimdAesMix            0      0.00%     63.44% # Class of committed instruction
system.cpu1.commit.op_class_0::SimdSha1Hash            0      0.00%     63.44% # Class of committed instruction
system.cpu1.commit.op_class_0::SimdSha1Hash2            0      0.00%     63.44% # Class of committed instruction
system.cpu1.commit.op_class_0::SimdSha256Hash            0      0.00%     63.44% # Class of committed instruction
system.cpu1.commit.op_class_0::SimdSha256Hash2            0      0.00%     63.44% # Class of committed instruction
system.cpu1.commit.op_class_0::SimdShaSigma2            0      0.00%     63.44% # Class of committed instruction
system.cpu1.commit.op_class_0::SimdShaSigma3            0      0.00%     63.44% # Class of committed instruction
system.cpu1.commit.op_class_0::SimdPredAlu            0      0.00%     63.44% # Class of committed instruction
system.cpu1.commit.op_class_0::MemRead       11207039     29.40%     92.84% # Class of committed instruction
system.cpu1.commit.op_class_0::MemWrite       2728421      7.16%    100.00% # Class of committed instruction
system.cpu1.commit.op_class_0::FloatMemRead            0      0.00%    100.00% # Class of committed instruction
system.cpu1.commit.op_class_0::FloatMemWrite           12      0.00%    100.00% # Class of committed instruction
system.cpu1.commit.op_class_0::IprAccess            0      0.00%    100.00% # Class of committed instruction
system.cpu1.commit.op_class_0::InstPrefetch            0      0.00%    100.00% # Class of committed instruction
system.cpu1.commit.op_class_0::total         38119380                       # Class of committed instruction
system.cpu1.commit.refs                      13935472                       # Number of memory references committed
system.cpu1.commit.swp_count                        0                       # Number of s/w prefetches committed
system.cpu1.commit.vec_insts                        0                       # Number of committed Vector instructions.
system.cpu1.committedInsts                   37213422                       # Number of Instructions Simulated
system.cpu1.committedOps                     38119380                       # Number of Ops (including micro ops) Simulated
system.cpu1.cpi                              5.820455                       # CPI: Cycles Per Instruction
system.cpu1.cpi_total                        5.820455                       # CPI: Total CPI of All Threads
system.cpu1.decode.BlockedCycles            189907250                       # Number of cycles decode is blocked
system.cpu1.decode.BranchMispred               152379                       # Number of times decode detected a branch misprediction
system.cpu1.decode.BranchResolved             5717836                       # Number of times decode resolved a branch
system.cpu1.decode.DecodedInsts              45561255                       # Number of instructions handled by decode
system.cpu1.decode.IdleCycles                 5880993                       # Number of cycles decode is idle
system.cpu1.decode.RunCycles                 17618356                       # Number of cycles decode is running
system.cpu1.decode.SquashCycles                638983                       # Number of cycles decode is squashing
system.cpu1.decode.SquashedInsts               351875                       # Number of squashed instructions handled by decode
system.cpu1.decode.UnblockCycles              2094941                       # Number of cycles decode is unblocking
system.cpu1.dtb.accesses                            0                       # DTB accesses
system.cpu1.dtb.hits                                0                       # DTB hits
system.cpu1.dtb.misses                              0                       # DTB misses
system.cpu1.dtb.read_accesses                       0                       # DTB read accesses
system.cpu1.dtb.read_hits                           0                       # DTB read hits
system.cpu1.dtb.read_misses                         0                       # DTB read misses
system.cpu1.dtb.write_accesses                      0                       # DTB write accesses
system.cpu1.dtb.write_hits                          0                       # DTB write hits
system.cpu1.dtb.write_misses                        0                       # DTB write misses
system.cpu1.fetch.Branches                   11176814                       # Number of branches that fetch encountered
system.cpu1.fetch.CacheLines                  5689355                       # Number of cache lines fetched
system.cpu1.fetch.Cycles                    208967496                       # Number of cycles fetch has run and was not squashing or blocked
system.cpu1.fetch.IcacheSquashes                83360                       # Number of outstanding Icache misses that were squashed
system.cpu1.fetch.Insts                      46517871                       # Number of instructions fetch has processed
system.cpu1.fetch.MiscStallCycles                   1                       # Number of cycles fetch has spent waiting on interrupts, or bad addresses, or out of MSHRs
system.cpu1.fetch.SquashCycles                1565088                       # Number of cycles fetch has spent squashing
system.cpu1.fetch.branchRate                 0.051601                       # Number of branch fetches per cycle
system.cpu1.fetch.icacheStallCycles           6390482                       # Number of cycles fetch is stalled on an Icache miss
system.cpu1.fetch.predictedBranches           6208906                       # Number of branches that fetch has predicted taken
system.cpu1.fetch.rate                       0.214765                       # Number of inst fetches per cycle
system.cpu1.fetch.rateDist::samples         216140523                       # Number of instructions fetched each cycle (Total)
system.cpu1.fetch.rateDist::mean             0.219417                       # Number of instructions fetched each cycle (Total)
system.cpu1.fetch.rateDist::stdev            0.646128                       # Number of instructions fetched each cycle (Total)
system.cpu1.fetch.rateDist::underflows              0      0.00%      0.00% # Number of instructions fetched each cycle (Total)
system.cpu1.fetch.rateDist::0               186676456     86.37%     86.37% # Number of instructions fetched each cycle (Total)
system.cpu1.fetch.rateDist::1                17839454      8.25%     94.62% # Number of instructions fetched each cycle (Total)
system.cpu1.fetch.rateDist::2                 7096072      3.28%     97.90% # Number of instructions fetched each cycle (Total)
system.cpu1.fetch.rateDist::3                 3076338      1.42%     99.33% # Number of instructions fetched each cycle (Total)
system.cpu1.fetch.rateDist::4                 1192894      0.55%     99.88% # Number of instructions fetched each cycle (Total)
system.cpu1.fetch.rateDist::5                  197774      0.09%     99.97% # Number of instructions fetched each cycle (Total)
system.cpu1.fetch.rateDist::6                   44211      0.02%     99.99% # Number of instructions fetched each cycle (Total)
system.cpu1.fetch.rateDist::7                      86      0.00%     99.99% # Number of instructions fetched each cycle (Total)
system.cpu1.fetch.rateDist::8                   17238      0.01%    100.00% # Number of instructions fetched each cycle (Total)
system.cpu1.fetch.rateDist::overflows               0      0.00%    100.00% # Number of instructions fetched each cycle (Total)
system.cpu1.fetch.rateDist::min_value               0                       # Number of instructions fetched each cycle (Total)
system.cpu1.fetch.rateDist::max_value               8                       # Number of instructions fetched each cycle (Total)
system.cpu1.fetch.rateDist::total           216140523                       # Number of instructions fetched each cycle (Total)
system.cpu1.fp_regfile_reads                       12                       # number of floating regfile reads
system.cpu1.idleCycles                         458519                       # Total number of cycles that the CPU has spent unscheduled due to idling
system.cpu1.iew.branchMispredicts              681373                       # Number of branch mispredicts detected at execute
system.cpu1.iew.exec_branches                 9434922                       # Number of branches executed
system.cpu1.iew.exec_nop                            0                       # number of nop insts executed
system.cpu1.iew.exec_rate                    0.190969                       # Inst execution rate
system.cpu1.iew.exec_refs                    15053909                       # number of memory reference insts executed
system.cpu1.iew.exec_stores                   3882608                       # Number of stores executed
system.cpu1.iew.exec_swp                            0                       # number of swp insts executed
system.cpu1.iew.iewBlockCycles              163152745                       # Number of cycles IEW is blocking
system.cpu1.iew.iewDispLoadInsts             11489884                       # Number of dispatched load instructions
system.cpu1.iew.iewDispNonSpecInsts            906574                       # Number of dispatched non-speculative instructions
system.cpu1.iew.iewDispSquashedInsts           675291                       # Number of squashed instructions skipped by dispatch
system.cpu1.iew.iewDispStoreInsts             4084605                       # Number of dispatched store instructions
system.cpu1.iew.iewDispatchedInsts           43077602                       # Number of instructions dispatched to IQ
system.cpu1.iew.iewExecLoadInsts             11171301                       # Number of load instructions executed
system.cpu1.iew.iewExecSquashedInsts           697978                       # Number of squashed instructions skipped in execute
system.cpu1.iew.iewExecutedInsts             41363678                       # Number of executed instructions
system.cpu1.iew.iewIQFullEvents                810912                       # Number of times the IQ has become full, causing a stall
system.cpu1.iew.iewIdleCycles                       0                       # Number of cycles IEW is idle
system.cpu1.iew.iewLSQFullEvents               922907                       # Number of times the LSQ has become full, causing a stall
system.cpu1.iew.iewSquashCycles                638983                       # Number of cycles IEW is squashing
system.cpu1.iew.iewUnblockCycles              2721234                       # Number of cycles IEW is unblocking
system.cpu1.iew.lsq.thread0.blockedLoads            0                       # Number of blocked loads due to partial load-store forwarding
system.cpu1.iew.lsq.thread0.cacheBlocked        27585                       # Number of times an access to memory failed due to the cache being blocked
system.cpu1.iew.lsq.thread0.forwLoads          194438                       # Number of loads that had data forwarded from stores
system.cpu1.iew.lsq.thread0.ignoredResponses         5439                       # Number of memory responses ignored because the instruction is squashed
system.cpu1.iew.lsq.thread0.invAddrLoads            0                       # Number of loads ignored due to an invalid address
system.cpu1.iew.lsq.thread0.invAddrSwpfs            0                       # Number of software prefetches ignored due to an invalid address
system.cpu1.iew.lsq.thread0.memOrderViolation         1633                       # Number of memory ordering violations
system.cpu1.iew.lsq.thread0.rescheduledLoads         4744                       # Number of loads that were rescheduled
system.cpu1.iew.lsq.thread0.squashedLoads      1188629                       # Number of loads squashed
system.cpu1.iew.lsq.thread0.squashedStores       450388                       # Number of stores squashed
system.cpu1.iew.memOrderViolationEvents          1633                       # Number of memory order violations
system.cpu1.iew.predictedNotTakenIncorrect       251442                       # Number of branches that were predicted not taken incorrectly
system.cpu1.iew.predictedTakenIncorrect        429931                       # Number of branches that were predicted taken incorrectly
system.cpu1.iew.wb_consumers                 22530496                       # num instructions consuming a value
system.cpu1.iew.wb_count                     40839720                       # cumulative count of insts written-back
system.cpu1.iew.wb_fanout                    0.834999                       # average fanout of values written-back
system.cpu1.iew.wb_producers                 18812946                       # num instructions producing a value
system.cpu1.iew.wb_rate                      0.188550                       # insts written-back per cycle
system.cpu1.iew.wb_sent                      40861141                       # cumulative count of insts sent to commit
system.cpu1.int_regfile_reads                52355449                       # number of integer regfile reads
system.cpu1.int_regfile_writes               26849012                       # number of integer regfile writes
system.cpu1.ipc                              0.171808                       # IPC: Instructions Per Cycle
system.cpu1.ipc_total                        0.171808                       # IPC: Total IPC of All Threads
system.cpu1.iq.FU_type_0::No_OpClass          1811819      4.31%      4.31% # Type of FU issued
system.cpu1.iq.FU_type_0::IntAlu             24964505     59.35%     63.66% # Type of FU issued
system.cpu1.iq.FU_type_0::IntMult                  49      0.00%     63.66% # Type of FU issued
system.cpu1.iq.FU_type_0::IntDiv                   86      0.00%     63.66% # Type of FU issued
system.cpu1.iq.FU_type_0::FloatAdd                  0      0.00%     63.66% # Type of FU issued
system.cpu1.iq.FU_type_0::FloatCmp                  0      0.00%     63.66% # Type of FU issued
system.cpu1.iq.FU_type_0::FloatCvt                  0      0.00%     63.66% # Type of FU issued
system.cpu1.iq.FU_type_0::FloatMult                 0      0.00%     63.66% # Type of FU issued
system.cpu1.iq.FU_type_0::FloatMultAcc              0      0.00%     63.66% # Type of FU issued
system.cpu1.iq.FU_type_0::FloatDiv                  0      0.00%     63.66% # Type of FU issued
system.cpu1.iq.FU_type_0::FloatMisc                 0      0.00%     63.66% # Type of FU issued
system.cpu1.iq.FU_type_0::FloatSqrt                 0      0.00%     63.66% # Type of FU issued
system.cpu1.iq.FU_type_0::SimdAdd                   0      0.00%     63.66% # Type of FU issued
system.cpu1.iq.FU_type_0::SimdAddAcc                0      0.00%     63.66% # Type of FU issued
system.cpu1.iq.FU_type_0::SimdAlu                   0      0.00%     63.66% # Type of FU issued
system.cpu1.iq.FU_type_0::SimdCmp                   0      0.00%     63.66% # Type of FU issued
system.cpu1.iq.FU_type_0::SimdCvt                   0      0.00%     63.66% # Type of FU issued
system.cpu1.iq.FU_type_0::SimdMisc                  0      0.00%     63.66% # Type of FU issued
system.cpu1.iq.FU_type_0::SimdMult                  0      0.00%     63.66% # Type of FU issued
system.cpu1.iq.FU_type_0::SimdMultAcc               0      0.00%     63.66% # Type of FU issued
system.cpu1.iq.FU_type_0::SimdShift                 0      0.00%     63.66% # Type of FU issued
system.cpu1.iq.FU_type_0::SimdShiftAcc              0      0.00%     63.66% # Type of FU issued
system.cpu1.iq.FU_type_0::SimdDiv                   0      0.00%     63.66% # Type of FU issued
system.cpu1.iq.FU_type_0::SimdSqrt                  0      0.00%     63.66% # Type of FU issued
system.cpu1.iq.FU_type_0::SimdFloatAdd              0      0.00%     63.66% # Type of FU issued
system.cpu1.iq.FU_type_0::SimdFloatAlu              0      0.00%     63.66% # Type of FU issued
system.cpu1.iq.FU_type_0::SimdFloatCmp              0      0.00%     63.66% # Type of FU issued
system.cpu1.iq.FU_type_0::SimdFloatCvt              0      0.00%     63.66% # Type of FU issued
system.cpu1.iq.FU_type_0::SimdFloatDiv              0      0.00%     63.66% # Type of FU issued
system.cpu1.iq.FU_type_0::SimdFloatMisc             0      0.00%     63.66% # Type of FU issued
system.cpu1.iq.FU_type_0::SimdFloatMult             0      0.00%     63.66% # Type of FU issued
system.cpu1.iq.FU_type_0::SimdFloatMultAcc            0      0.00%     63.66% # Type of FU issued
system.cpu1.iq.FU_type_0::SimdFloatSqrt             0      0.00%     63.66% # Type of FU issued
system.cpu1.iq.FU_type_0::SimdReduceAdd             0      0.00%     63.66% # Type of FU issued
system.cpu1.iq.FU_type_0::SimdReduceAlu             0      0.00%     63.66% # Type of FU issued
system.cpu1.iq.FU_type_0::SimdReduceCmp             0      0.00%     63.66% # Type of FU issued
system.cpu1.iq.FU_type_0::SimdFloatReduceAdd            0      0.00%     63.66% # Type of FU issued
system.cpu1.iq.FU_type_0::SimdFloatReduceCmp            0      0.00%     63.66% # Type of FU issued
system.cpu1.iq.FU_type_0::SimdAes                   0      0.00%     63.66% # Type of FU issued
system.cpu1.iq.FU_type_0::SimdAesMix                0      0.00%     63.66% # Type of FU issued
system.cpu1.iq.FU_type_0::SimdSha1Hash              0      0.00%     63.66% # Type of FU issued
system.cpu1.iq.FU_type_0::SimdSha1Hash2             0      0.00%     63.66% # Type of FU issued
system.cpu1.iq.FU_type_0::SimdSha256Hash            0      0.00%     63.66% # Type of FU issued
system.cpu1.iq.FU_type_0::SimdSha256Hash2            0      0.00%     63.66% # Type of FU issued
system.cpu1.iq.FU_type_0::SimdShaSigma2             0      0.00%     63.66% # Type of FU issued
system.cpu1.iq.FU_type_0::SimdShaSigma3             0      0.00%     63.66% # Type of FU issued
system.cpu1.iq.FU_type_0::SimdPredAlu               0      0.00%     63.66% # Type of FU issued
system.cpu1.iq.FU_type_0::MemRead            12272743     29.18%     92.84% # Type of FU issued
system.cpu1.iq.FU_type_0::MemWrite            3012442      7.16%    100.00% # Type of FU issued
system.cpu1.iq.FU_type_0::FloatMemRead              0      0.00%    100.00% # Type of FU issued
system.cpu1.iq.FU_type_0::FloatMemWrite            12      0.00%    100.00% # Type of FU issued
system.cpu1.iq.FU_type_0::IprAccess                 0      0.00%    100.00% # Type of FU issued
system.cpu1.iq.FU_type_0::InstPrefetch              0      0.00%    100.00% # Type of FU issued
system.cpu1.iq.FU_type_0::total              42061656                       # Type of FU issued
system.cpu1.iq.fp_alu_accesses                     14                       # Number of floating point alu accesses
system.cpu1.iq.fp_inst_queue_reads                 26                       # Number of floating instruction queue reads
system.cpu1.iq.fp_inst_queue_wakeup_accesses           12                       # Number of floating instruction queue wakeup accesses
system.cpu1.iq.fp_inst_queue_writes                12                       # Number of floating instruction queue writes
system.cpu1.iq.fu_busy_cnt                    1045829                       # FU busy when requested
system.cpu1.iq.fu_busy_rate                  0.024864                       # FU busy rate (busy events/executed inst)
system.cpu1.iq.fu_full::No_OpClass                  0      0.00%      0.00% # attempts to use FU when none available
system.cpu1.iq.fu_full::IntAlu                 199012     19.03%     19.03% # attempts to use FU when none available
system.cpu1.iq.fu_full::IntMult                     0      0.00%     19.03% # attempts to use FU when none available
system.cpu1.iq.fu_full::IntDiv                      0      0.00%     19.03% # attempts to use FU when none available
system.cpu1.iq.fu_full::FloatAdd                    0      0.00%     19.03% # attempts to use FU when none available
system.cpu1.iq.fu_full::FloatCmp                    0      0.00%     19.03% # attempts to use FU when none available
system.cpu1.iq.fu_full::FloatCvt                    0      0.00%     19.03% # attempts to use FU when none available
system.cpu1.iq.fu_full::FloatMult                   0      0.00%     19.03% # attempts to use FU when none available
system.cpu1.iq.fu_full::FloatMultAcc                0      0.00%     19.03% # attempts to use FU when none available
system.cpu1.iq.fu_full::FloatDiv                    0      0.00%     19.03% # attempts to use FU when none available
system.cpu1.iq.fu_full::FloatMisc                   0      0.00%     19.03% # attempts to use FU when none available
system.cpu1.iq.fu_full::FloatSqrt                   0      0.00%     19.03% # attempts to use FU when none available
system.cpu1.iq.fu_full::SimdAdd                     0      0.00%     19.03% # attempts to use FU when none available
system.cpu1.iq.fu_full::SimdAddAcc                  0      0.00%     19.03% # attempts to use FU when none available
system.cpu1.iq.fu_full::SimdAlu                     0      0.00%     19.03% # attempts to use FU when none available
system.cpu1.iq.fu_full::SimdCmp                     0      0.00%     19.03% # attempts to use FU when none available
system.cpu1.iq.fu_full::SimdCvt                     0      0.00%     19.03% # attempts to use FU when none available
system.cpu1.iq.fu_full::SimdMisc                    0      0.00%     19.03% # attempts to use FU when none available
system.cpu1.iq.fu_full::SimdMult                    0      0.00%     19.03% # attempts to use FU when none available
system.cpu1.iq.fu_full::SimdMultAcc                 0      0.00%     19.03% # attempts to use FU when none available
system.cpu1.iq.fu_full::SimdShift                   0      0.00%     19.03% # attempts to use FU when none available
system.cpu1.iq.fu_full::SimdShiftAcc                0      0.00%     19.03% # attempts to use FU when none available
system.cpu1.iq.fu_full::SimdDiv                     0      0.00%     19.03% # attempts to use FU when none available
system.cpu1.iq.fu_full::SimdSqrt                    0      0.00%     19.03% # attempts to use FU when none available
system.cpu1.iq.fu_full::SimdFloatAdd                0      0.00%     19.03% # attempts to use FU when none available
system.cpu1.iq.fu_full::SimdFloatAlu                0      0.00%     19.03% # attempts to use FU when none available
system.cpu1.iq.fu_full::SimdFloatCmp                0      0.00%     19.03% # attempts to use FU when none available
system.cpu1.iq.fu_full::SimdFloatCvt                0      0.00%     19.03% # attempts to use FU when none available
system.cpu1.iq.fu_full::SimdFloatDiv                0      0.00%     19.03% # attempts to use FU when none available
system.cpu1.iq.fu_full::SimdFloatMisc               0      0.00%     19.03% # attempts to use FU when none available
system.cpu1.iq.fu_full::SimdFloatMult               0      0.00%     19.03% # attempts to use FU when none available
system.cpu1.iq.fu_full::SimdFloatMultAcc            0      0.00%     19.03% # attempts to use FU when none available
system.cpu1.iq.fu_full::SimdFloatSqrt               0      0.00%     19.03% # attempts to use FU when none available
system.cpu1.iq.fu_full::SimdReduceAdd               0      0.00%     19.03% # attempts to use FU when none available
system.cpu1.iq.fu_full::SimdReduceAlu               0      0.00%     19.03% # attempts to use FU when none available
system.cpu1.iq.fu_full::SimdReduceCmp               0      0.00%     19.03% # attempts to use FU when none available
system.cpu1.iq.fu_full::SimdFloatReduceAdd            0      0.00%     19.03% # attempts to use FU when none available
system.cpu1.iq.fu_full::SimdFloatReduceCmp            0      0.00%     19.03% # attempts to use FU when none available
system.cpu1.iq.fu_full::SimdAes                     0      0.00%     19.03% # attempts to use FU when none available
system.cpu1.iq.fu_full::SimdAesMix                  0      0.00%     19.03% # attempts to use FU when none available
system.cpu1.iq.fu_full::SimdSha1Hash                0      0.00%     19.03% # attempts to use FU when none available
system.cpu1.iq.fu_full::SimdSha1Hash2               0      0.00%     19.03% # attempts to use FU when none available
system.cpu1.iq.fu_full::SimdSha256Hash              0      0.00%     19.03% # attempts to use FU when none available
system.cpu1.iq.fu_full::SimdSha256Hash2             0      0.00%     19.03% # attempts to use FU when none available
system.cpu1.iq.fu_full::SimdShaSigma2               0      0.00%     19.03% # attempts to use FU when none available
system.cpu1.iq.fu_full::SimdShaSigma3               0      0.00%     19.03% # attempts to use FU when none available
system.cpu1.iq.fu_full::SimdPredAlu                 0      0.00%     19.03% # attempts to use FU when none available
system.cpu1.iq.fu_full::MemRead                750674     71.78%     90.81% # attempts to use FU when none available
system.cpu1.iq.fu_full::MemWrite                96141      9.19%    100.00% # attempts to use FU when none available
[...]
system.cpu1.dcache.WriteReq_mshr_miss_rate::.cpu1.data     0.162629                       # mshr miss rate for WriteReq accesses
system.cpu1.dcache.WriteReq_mshr_miss_rate::total     0.162629                       # mshr miss rate for WriteReq accesses
system.cpu1.dcache.WriteReq_avg_mshr_miss_latency::.cpu1.data 116062.614779                       # average WriteReq mshr miss latency
system.cpu1.dcache.WriteReq_avg_mshr_miss_latency::total 116062.614779                       # average WriteReq mshr miss latency
system.cpu1.dcache.LoadLockedReq_hits::.cpu1.data      1195258                       # number of LoadLockedReq hits
system.cpu1.dcache.LoadLockedReq_hits::total      1195258                       # number of LoadLockedReq hits
system.cpu1.dcache.LoadLockedReq_misses::.cpu1.data         3816                       # number of LoadLockedReq misses
system.cpu1.dcache.LoadLockedReq_misses::total         3816                       # number of LoadLockedReq misses
system.cpu1.dcache.LoadLockedReq_miss_latency::.cpu1.data     72756500                       # number of LoadLockedReq miss cycles
system.cpu1.dcache.LoadLockedReq_miss_latency::total     72756500                       # number of LoadLockedReq miss cycles
system.cpu1.dcache.LoadLockedReq_accesses::.cpu1.data      1199074                       # number of LoadLockedReq accesses(hits+misses)
system.cpu1.dcache.LoadLockedReq_accesses::total      1199074                       # number of LoadLockedReq accesses(hits+misses)
system.cpu1.dcache.LoadLockedReq_miss_rate::.cpu1.data     0.003182                       # miss rate for LoadLockedReq accesses
system.cpu1.dcache.LoadLockedReq_miss_rate::total     0.003182                       # miss rate for LoadLockedReq accesses
system.cpu1.dcache.LoadLockedReq_avg_miss_latency::.cpu1.data 19066.168763                       # average LoadLockedReq miss latency
system.cpu1.dcache.LoadLockedReq_avg_miss_latency::total 19066.168763                       # average LoadLockedReq miss latency
system.cpu1.dcache.LoadLockedReq_mshr_hits::.cpu1.data          398                       # number of LoadLockedReq MSHR hits
system.cpu1.dcache.LoadLockedReq_mshr_hits::total          398                       # number of LoadLockedReq MSHR hits
system.cpu1.dcache.LoadLockedReq_mshr_misses::.cpu1.data         3418                       # number of LoadLockedReq MSHR misses
system.cpu1.dcache.LoadLockedReq_mshr_misses::total         3418                       # number of LoadLockedReq MSHR misses
system.cpu1.dcache.LoadLockedReq_mshr_miss_latency::.cpu1.data     54581500                       # number of LoadLockedReq MSHR miss cycles
system.cpu1.dcache.LoadLockedReq_mshr_miss_latency::total     54581500                       # number of LoadLockedReq MSHR miss cycles
system.cpu1.dcache.LoadLockedReq_mshr_miss_rate::.cpu1.data     0.002851                       # mshr miss rate for LoadLockedReq accesses
system.cpu1.dcache.LoadLockedReq_mshr_miss_rate::total     0.002851                       # mshr miss rate for LoadLockedReq accesses
system.cpu1.dcache.LoadLockedReq_avg_mshr_miss_latency::.cpu1.data 15968.841428                       # average LoadLockedReq mshr miss latency
system.cpu1.dcache.LoadLockedReq_avg_mshr_miss_latency::total 15968.841428                       # average LoadLockedReq mshr miss latency
system.cpu1.dcache.StoreCondReq_hits::.cpu1.data      1187757                       # number of StoreCondReq hits
system.cpu1.dcache.StoreCondReq_hits::total      1187757                       # number of StoreCondReq hits
system.cpu1.dcache.StoreCondReq_misses::.cpu1.data         7738                       # number of StoreCondReq misses
system.cpu1.dcache.StoreCondReq_misses::total         7738                       # number of StoreCondReq misses
system.cpu1.dcache.StoreCondReq_miss_latency::.cpu1.data     81681000                       # number of StoreCondReq miss cycles
system.cpu1.dcache.StoreCondReq_miss_latency::total     81681000                       # number of StoreCondReq miss cycles
system.cpu1.dcache.StoreCondReq_accesses::.cpu1.data      1195495                       # number of StoreCondReq accesses(hits+misses)
system.cpu1.dcache.StoreCondReq_accesses::total      1195495                       # number of StoreCondReq accesses(hits+misses)
system.cpu1.dcache.StoreCondReq_miss_rate::.cpu1.data     0.006473                       # miss rate for StoreCondReq accesses
system.cpu1.dcache.StoreCondReq_miss_rate::total     0.006473                       # miss rate for StoreCondReq accesses
system.cpu1.dcache.StoreCondReq_avg_miss_latency::.cpu1.data 10555.828379                       # average StoreCondReq miss latency
system.cpu1.dcache.StoreCondReq_avg_miss_latency::total 10555.828379                       # average StoreCondReq miss latency
system.cpu1.dcache.StoreCondReq_mshr_misses::.cpu1.data         7583                       # number of StoreCondReq MSHR misses
system.cpu1.dcache.StoreCondReq_mshr_misses::total         7583                       # number of StoreCondReq MSHR misses
system.cpu1.dcache.StoreCondReq_mshr_miss_latency::.cpu1.data     74386000                       # number of StoreCondReq MSHR miss cycles
system.cpu1.dcache.StoreCondReq_mshr_miss_latency::total     74386000                       # number of StoreCondReq MSHR miss cycles
system.cpu1.dcache.StoreCondReq_mshr_miss_rate::.cpu1.data     0.006343                       # mshr miss rate for StoreCondReq accesses
system.cpu1.dcache.StoreCondReq_mshr_miss_rate::total     0.006343                       # mshr miss rate for StoreCondReq accesses
system.cpu1.dcache.StoreCondReq_avg_mshr_miss_latency::.cpu1.data  9809.574047                       # average StoreCondReq mshr miss latency
system.cpu1.dcache.StoreCondReq_avg_mshr_miss_latency::total  9809.574047                       # average StoreCondReq mshr miss latency
system.cpu1.dcache.StoreCondFailReq_miss_latency::.cpu1.data      4098500                       # number of StoreCondFailReq miss cycles
system.cpu1.dcache.StoreCondFailReq_miss_latency::total      4098500                       # number of StoreCondFailReq miss cycles
system.cpu1.dcache.StoreCondFailReq_avg_miss_latency::.cpu1.data          inf                       # average StoreCondFailReq miss latency
system.cpu1.dcache.StoreCondFailReq_avg_miss_latency::total          inf                       # average StoreCondFailReq miss latency
system.cpu1.dcache.StoreCondFailReq_mshr_miss_latency::.cpu1.data      3810500                       # number of StoreCondFailReq MSHR miss cycles
system.cpu1.dcache.StoreCondFailReq_mshr_miss_latency::total      3810500                       # number of StoreCondFailReq MSHR miss cycles
system.cpu1.dcache.StoreCondFailReq_avg_mshr_miss_latency::.cpu1.data          inf                       # average StoreCondFailReq mshr miss latency
system.cpu1.dcache.StoreCondFailReq_avg_mshr_miss_latency::total          inf                       # average StoreCondFailReq mshr miss latency
system.cpu1.dcache.SwapReq_hits::.cpu1.data       212617                       # number of SwapReq hits
system.cpu1.dcache.SwapReq_hits::total         212617                       # number of SwapReq hits
system.cpu1.dcache.SwapReq_misses::.cpu1.data       678738                       # number of SwapReq misses
system.cpu1.dcache.SwapReq_misses::total       678738                       # number of SwapReq misses
system.cpu1.dcache.SwapReq_miss_latency::.cpu1.data  66498723685                       # number of SwapReq miss cycles
system.cpu1.dcache.SwapReq_miss_latency::total  66498723685                       # number of SwapReq miss cycles
system.cpu1.dcache.SwapReq_accesses::.cpu1.data       891355                       # number of SwapReq accesses(hits+misses)
system.cpu1.dcache.SwapReq_accesses::total       891355                       # number of SwapReq accesses(hits+misses)
system.cpu1.dcache.SwapReq_miss_rate::.cpu1.data     0.761468                       # miss rate for SwapReq accesses
system.cpu1.dcache.SwapReq_miss_rate::total     0.761468                       # miss rate for SwapReq accesses
system.cpu1.dcache.SwapReq_avg_miss_latency::.cpu1.data 97974.069059                       # average SwapReq miss latency
system.cpu1.dcache.SwapReq_avg_miss_latency::total 97974.069059                       # average SwapReq miss latency
system.cpu1.dcache.SwapReq_mshr_hits::.cpu1.data            5                       # number of SwapReq MSHR hits
system.cpu1.dcache.SwapReq_mshr_hits::total            5                       # number of SwapReq MSHR hits
system.cpu1.dcache.SwapReq_mshr_misses::.cpu1.data       678733                       # number of SwapReq MSHR misses
system.cpu1.dcache.SwapReq_mshr_misses::total       678733                       # number of SwapReq MSHR misses
system.cpu1.dcache.SwapReq_mshr_miss_latency::.cpu1.data  65819985685                       # number of SwapReq MSHR miss cycles
system.cpu1.dcache.SwapReq_mshr_miss_latency::total  65819985685                       # number of SwapReq MSHR miss cycles
system.cpu1.dcache.SwapReq_mshr_miss_rate::.cpu1.data     0.761462                       # mshr miss rate for SwapReq accesses
system.cpu1.dcache.SwapReq_mshr_miss_rate::total     0.761462                       # mshr miss rate for SwapReq accesses
system.cpu1.dcache.SwapReq_avg_mshr_miss_latency::.cpu1.data 96974.783435                       # average SwapReq mshr miss latency
system.cpu1.dcache.SwapReq_avg_mshr_miss_latency::total 96974.783435                       # average SwapReq mshr miss latency
system.cpu1.dcache.tags.pwrStateResidencyTicks::UNDEFINED 415418732000                       # Cumulative time (in ticks) in various power states
system.cpu1.dcache.tags.tagsinuse           31.611871                       # Cycle average of tags in use
system.cpu1.dcache.tags.total_refs           44008566                       # Total number of references to valid blocks.
system.cpu1.dcache.tags.sampled_refs          7484626                       # Sample count of references to valid blocks.
system.cpu1.dcache.tags.avg_refs             5.879862                       # Average number of references to valid blocks.
system.cpu1.dcache.tags.warmup_cycle                0                       # Cycle when the warmup percentage was hit.
system.cpu1.dcache.tags.occ_blocks::.cpu1.data    31.611871                       # Average occupied blocks per requestor
system.cpu1.dcache.tags.occ_percent::.cpu1.data     0.987871                       # Average percentage of cache occupancy
system.cpu1.dcache.tags.occ_percent::total     0.987871                       # Average percentage of cache occupancy
system.cpu1.dcache.tags.occ_task_id_blocks::1024           27                       # Occupied blocks per task id
system.cpu1.dcache.tags.age_task_id_blocks_1024::1           27                       # Occupied blocks per task id
system.cpu1.dcache.tags.occ_task_id_percent::1024     0.843750                       # Percentage of cache occupancy per task id
system.cpu1.dcache.tags.tag_accesses        106222283                       # Number of tag accesses
system.cpu1.dcache.tags.data_accesses       106222283                       # Number of data accesses
system.cpu_clk_domain.clock                       500                       # Clock period in ticks
system.tol2bus.pwrStateResidencyTicks::UNDEFINED 415418732000                       # Cumulative time (in ticks) in various power states
system.tol2bus.trans_dist::ReadResp          25859801                       # Transaction distribution
system.tol2bus.trans_dist::ReadRespWithInvalidate           32                       # Transaction distribution
system.tol2bus.trans_dist::WritebackDirty     12029135                       # Transaction distribution
system.tol2bus.trans_dist::WritebackClean     23688822                       # Transaction distribution
system.tol2bus.trans_dist::CleanEvict        45113600                       # Transaction distribution
system.tol2bus.trans_dist::UpgradeReq           27678                       # Transaction distribution
system.tol2bus.trans_dist::SCUpgradeReq         30100                       # Transaction distribution
system.tol2bus.trans_dist::UpgradeResp          57778                       # Transaction distribution
system.tol2bus.trans_dist::SCUpgradeFailReq         1016                       # Transaction distribution
system.tol2bus.trans_dist::UpgradeFailResp         1016                       # Transaction distribution
system.tol2bus.trans_dist::ReadExReq          4265376                       # Transaction distribution
system.tol2bus.trans_dist::ReadExResp         4265379                       # Transaction distribution
system.tol2bus.trans_dist::ReadCleanReq        228597                       # Transaction distribution
system.tol2bus.trans_dist::ReadSharedReq     25631237                       # Transaction distribution
system.tol2bus.trans_dist::InvalidateReq           48                       # Transaction distribution
system.tol2bus.trans_dist::InvalidateResp           48                       # Transaction distribution
system.tol2bus.pkt_count_system.cpu0.icache.mem_side::system.l2.cpu_side       263064                       # Packet count per connected master and slave (bytes)
system.tol2bus.pkt_count_system.cpu0.dcache.mem_side::system.l2.cpu_side     22265402                       # Packet count per connected master and slave (bytes)
system.tol2bus.pkt_count_system.cpu1.icache.mem_side::system.l2.cpu_side       142170                       # Packet count per connected master and slave (bytes)
system.tol2bus.pkt_count_system.cpu1.dcache.mem_side::system.l2.cpu_side     22398935                       # Packet count per connected master and slave (bytes)
system.tol2bus.pkt_count_system.cpu2.icache.mem_side::system.l2.cpu_side       138204                       # Packet count per connected master and slave (bytes)
system.tol2bus.pkt_count_system.cpu2.dcache.mem_side::system.l2.cpu_side     22344996                       # Packet count per connected master and slave (bytes)
system.tol2bus.pkt_count_system.cpu3.icache.mem_side::system.l2.cpu_side       142353                       # Packet count per connected master and slave (bytes)
system.tol2bus.pkt_count_system.cpu3.dcache.mem_side::system.l2.cpu_side     22468238                       # Packet count per connected master and slave (bytes)
system.tol2bus.pkt_count::total              90163362                       # Packet count per connected master and slave (bytes)
system.tol2bus.pkt_size_system.cpu0.icache.mem_side::system.l2.cpu_side     11224064                       # Cumulative packet size per connected master and slave (bytes)
system.tol2bus.pkt_size_system.cpu0.dcache.mem_side::system.l2.cpu_side    947660032                       # Cumulative packet size per connected master and slave (bytes)
system.tol2bus.pkt_size_system.cpu1.icache.mem_side::system.l2.cpu_side      6065920                       # Cumulative packet size per connected master and slave (bytes)
system.tol2bus.pkt_size_system.cpu1.dcache.mem_side::system.l2.cpu_side    953350464                       # Cumulative packet size per connected master and slave (bytes)
system.tol2bus.pkt_size_system.cpu2.icache.mem_side::system.l2.cpu_side      5896704                       # Cumulative packet size per connected master and slave (bytes)
system.tol2bus.pkt_size_system.cpu2.dcache.mem_side::system.l2.cpu_side    951038016                       # Cumulative packet size per connected master and slave (bytes)
system.tol2bus.pkt_size_system.cpu3.icache.mem_side::system.l2.cpu_side      6073728                       # Cumulative packet size per connected master and slave (bytes)
system.tol2bus.pkt_size_system.cpu3.dcache.mem_side::system.l2.cpu_side    956267456                       # Cumulative packet size per connected master and slave (bytes)
system.tol2bus.pkt_size::total             3837576384                       # Cumulative packet size per connected master and slave (bytes)
system.tol2bus.snoops                        51036301                       # Total snoops (count)
system.tol2bus.snoopTraffic                 376451456                       # Total snoop traffic (bytes)
system.tol2bus.snoop_fanout::samples         81033290                       # Request fanout histogram
system.tol2bus.snoop_fanout::mean            0.383658                       # Request fanout histogram
system.tol2bus.snoop_fanout::stdev           0.621613                       # Request fanout histogram
system.tol2bus.snoop_fanout::underflows             0      0.00%      0.00% # Request fanout histogram
system.tol2bus.snoop_fanout::0               53870142     66.48%     66.48% # Request fanout histogram
system.tol2bus.snoop_fanout::1               24980461     30.83%     97.31% # Request fanout histogram
system.tol2bus.snoop_fanout::2                 845346      1.04%     98.35% # Request fanout histogram
system.tol2bus.snoop_fanout::3                 931469      1.15%     99.50% # Request fanout histogram
system.tol2bus.snoop_fanout::4                 405871      0.50%    100.00% # Request fanout histogram
system.tol2bus.snoop_fanout::5                      1      0.00%    100.00% # Request fanout histogram
system.tol2bus.snoop_fanout::6                      0      0.00%    100.00% # Request fanout histogram
system.tol2bus.snoop_fanout::7                      0      0.00%    100.00% # Request fanout histogram
system.tol2bus.snoop_fanout::8                      0      0.00%    100.00% # Request fanout histogram
system.tol2bus.snoop_fanout::overflows              0      0.00%    100.00% # Request fanout histogram
system.tol2bus.snoop_fanout::min_value              0                       # Request fanout histogram
system.tol2bus.snoop_fanout::max_value              5                       # Request fanout histogram
system.tol2bus.snoop_fanout::total           81033290                       # Request fanout histogram
system.tol2bus.reqLayer0.occupancy        60066114163                       # Layer occupancy (ticks)
system.tol2bus.reqLayer0.utilization             14.5                       # Layer utilization (%)
system.tol2bus.respLayer5.occupancy       11230665702                       # Layer occupancy (ticks)
system.tol2bus.respLayer5.utilization             2.7                       # Layer utilization (%)
system.tol2bus.respLayer4.occupancy          71409472                       # Layer occupancy (ticks)
system.tol2bus.respLayer4.utilization             0.0                       # Layer utilization (%)
system.tol2bus.respLayer7.occupancy       11292738776                       # Layer occupancy (ticks)
system.tol2bus.respLayer7.utilization             2.7                       # Layer utilization (%)
system.tol2bus.respLayer6.occupancy          73537790                       # Layer occupancy (ticks)
system.tol2bus.respLayer6.utilization             0.0                       # Layer utilization (%)
system.tol2bus.respLayer1.occupancy       11188358400                       # Layer occupancy (ticks)
system.tol2bus.respLayer1.utilization             2.7                       # Layer utilization (%)
system.tol2bus.respLayer0.occupancy         132967078                       # Layer occupancy (ticks)
system.tol2bus.respLayer0.utilization             0.0                       # Layer utilization (%)
system.tol2bus.respLayer3.occupancy       11257428287                       # Layer occupancy (ticks)
system.tol2bus.respLayer3.utilization             2.7                       # Layer utilization (%)
system.tol2bus.respLayer2.occupancy          73452380                       # Layer occupancy (ticks)
system.tol2bus.respLayer2.utilization             0.0                       # Layer utilization (%)

---------- End Simulation Statistics   ----------
