
---------- Begin Simulation Statistics ----------
final_tick                               1294508571500                       # Number of ticks from beginning of simulation (restored from checkpoints and never reset)
host_inst_rate                                  59003                       # Simulator instruction rate (inst/s)
host_mem_usage                                 703252                       # Number of bytes of host memory used
host_op_rate                                    59176                       # Simulator op (including micro ops) rate (op/s)
host_seconds                                 24348.04                       # Real time elapsed on the host
host_tick_rate                               53166840                       # Simulator tick rate (ticks/s)
sim_freq                                 1000000000000                       # Frequency of simulated ticks
sim_insts                                  1436618377                       # Number of instructions simulated
sim_ops                                    1440822137                       # Number of ops (including micro ops) simulated
sim_seconds                                  1.294509                       # Number of seconds simulated
sim_ticks                                1294508571500                       # Number of ticks simulated
system.cpu0.branchPred.BTBCorrect                   0                       # Number of correct BTB predictions (this stat may not work properly.
system.cpu0.branchPred.BTBHitPct            87.355021                       # BTB Hit Percentage
system.cpu0.branchPred.BTBHits              193979789                       # Number of BTB hits
system.cpu0.branchPred.BTBLookups           222059118                       # Number of BTB lookups
system.cpu0.branchPred.RASInCorrect                 0                       # Number of incorrect RAS predictions.
system.cpu0.branchPred.condIncorrect         30239631                       # Number of conditional branches incorrect
system.cpu0.branchPred.condPredicted        282795415                       # Number of conditional branches predicted
system.cpu0.branchPred.indirectHits          25756527                       # Number of indirect target hits.
system.cpu0.branchPred.indirectLookups       26931283                       # Number of indirect predictor lookups.
system.cpu0.branchPred.indirectMisses         1174756                       # Number of indirect misses.
system.cpu0.branchPred.lookups              368133314                       # Number of BP lookups
system.cpu0.branchPred.usedRAS                      0                       # Number of times the RAS was used to get a target.
system.cpu0.branchPredindirectMispredicted      2188746                       # Number of mispredicted indirect branches.
system.cpu0.commit.amos                       2100293                       # Number of atomic instructions committed
system.cpu0.commit.branchMispredicts         15080961                       # The number of times a branch was mispredicted
system.cpu0.commit.branches                 329547183                       # Number of branches committed
system.cpu0.commit.bw_lim_events             41494147                       # number cycles where commit BW limit reached
system.cpu0.commit.commitNonSpecStalls        6309795                       # The number of times commit has been forced to stall to communicate backwards
system.cpu0.commit.commitSquashedInsts      134972692                       # The number of squashed insts skipped by commit
system.cpu0.commit.committedInsts          1316562393                       # Number of instructions committed
system.cpu0.commit.committedOps            1318665980                       # Number of ops (including micro ops) committed
system.cpu0.commit.committed_per_cycle::samples   2354737245                       # Number of insts commited each cycle
system.cpu0.commit.committed_per_cycle::mean     0.560006                       # Number of insts commited each cycle
system.cpu0.commit.committed_per_cycle::stdev     1.356865                       # Number of insts commited each cycle
system.cpu0.commit.committed_per_cycle::underflows            0      0.00%      0.00% # Number of insts commited each cycle
system.cpu0.commit.committed_per_cycle::0   1741725892     73.97%     73.97% # Number of insts commited each cycle
system.cpu0.commit.committed_per_cycle::1    355022274     15.08%     89.04% # Number of insts commited each cycle
system.cpu0.commit.committed_per_cycle::2     86097617      3.66%     92.70% # Number of insts commited each cycle
system.cpu0.commit.committed_per_cycle::3     85188685      3.62%     96.32% # Number of insts commited each cycle
system.cpu0.commit.committed_per_cycle::4     30956378      1.31%     97.63% # Number of insts commited each cycle
system.cpu0.commit.committed_per_cycle::5      6967049      0.30%     97.93% # Number of insts commited each cycle
system.cpu0.commit.committed_per_cycle::6      5727937      0.24%     98.17% # Number of insts commited each cycle
system.cpu0.commit.committed_per_cycle::7      1557266      0.07%     98.24% # Number of insts commited each cycle
system.cpu0.commit.committed_per_cycle::8     41494147      1.76%    100.00% # Number of insts commited each cycle
system.cpu0.commit.committed_per_cycle::overflows            0      0.00%    100.00% # Number of insts commited each cycle
system.cpu0.commit.committed_per_cycle::min_value            0                       # Number of insts commited each cycle
system.cpu0.commit.committed_per_cycle::max_value            8                       # Number of insts commited each cycle
system.cpu0.commit.committed_per_cycle::total   2354737245                       # Number of insts commited each cycle
system.cpu0.commit.fp_insts                        50                       # Number of committed floating point instructions.
system.cpu0.commit.function_calls            25143451                       # Number of function calls committed.
system.cpu0.commit.int_insts               1273934113                       # Number of committed integer instructions.
system.cpu0.commit.loads                    405171311                       # Number of loads committed
system.cpu0.commit.membars                    4203755                       # Number of memory barriers committed
system.cpu0.commit.op_class_0::No_OpClass      4203761      0.32%      0.32% # Class of committed instruction
system.cpu0.commit.op_class_0::IntAlu       742072233     56.27%     56.59% # Class of committed instruction
system.cpu0.commit.op_class_0::IntMult       11833032      0.90%     57.49% # Class of committed instruction
system.cpu0.commit.op_class_0::IntDiv         2099835      0.16%     57.65% # Class of committed instruction
system.cpu0.commit.op_class_0::FloatAdd             0      0.00%     57.65% # Class of committed instruction
system.cpu0.commit.op_class_0::FloatCmp             4      0.00%     57.65% # Class of committed instruction
system.cpu0.commit.op_class_0::FloatCvt            12      0.00%     57.65% # Class of committed instruction
system.cpu0.commit.op_class_0::FloatMult            0      0.00%     57.65% # Class of committed instruction
system.cpu0.commit.op_class_0::FloatMultAcc            0      0.00%     57.65% # Class of committed instruction
system.cpu0.commit.op_class_0::FloatDiv             2      0.00%     57.65% # Class of committed instruction
system.cpu0.commit.op_class_0::FloatMisc            4      0.00%     57.65% # Class of committed instruction
system.cpu0.commit.op_class_0::FloatSqrt            0      0.00%     57.65% # Class of committed instruction
system.cpu0.commit.op_class_0::SimdAdd              0      0.00%     57.65% # Class of committed instruction
system.cpu0.commit.op_class_0::SimdAddAcc            0      0.00%     57.65% # Class of committed instruction
system.cpu0.commit.op_class_0::SimdAlu              0      0.00%     57.65% # Class of committed instruction
system.cpu0.commit.op_class_0::SimdCmp              0      0.00%     57.65% # Class of committed instruction
system.cpu0.commit.op_class_0::SimdCvt              0      0.00%     57.65% # Class of committed instruction
system.cpu0.commit.op_class_0::SimdMisc             0      0.00%     57.65% # Class of committed instruction
system.cpu0.commit.op_class_0::SimdMult             0      0.00%     57.65% # Class of committed instruction
system.cpu0.commit.op_class_0::SimdMultAcc            0      0.00%     57.65% # Class of committed instruction
system.cpu0.commit.op_class_0::SimdShift            0      0.00%     57.65% # Class of committed instruction
system.cpu0.commit.op_class_0::SimdShiftAcc            0      0.00%     57.65% # Class of committed instruction
system.cpu0.commit.op_class_0::SimdDiv              0      0.00%     57.65% # Class of committed instruction
system.cpu0.commit.op_class_0::SimdSqrt             0      0.00%     57.65% # Class of committed instruction
system.cpu0.commit.op_class_0::SimdFloatAdd            0      0.00%     57.65% # Class of committed instruction
system.cpu0.commit.op_class_0::SimdFloatAlu            0      0.00%     57.65% # Class of committed instruction
system.cpu0.commit.op_class_0::SimdFloatCmp            0      0.00%     57.65% # Class of committed instruction
system.cpu0.commit.op_class_0::SimdFloatCvt            0      0.00%     57.65% # Class of committed instruction
system.cpu0.commit.op_class_0::SimdFloatDiv            0      0.00%     57.65% # Class of committed instruction
system.cpu0.commit.op_class_0::SimdFloatMisc            0      0.00%     57.65% # Class of committed instruction
system.cpu0.commit.op_class_0::SimdFloatMult            0      0.00%     57.65% # Class of committed instruction
system.cpu0.commit.op_class_0::SimdFloatMultAcc            0      0.00%     57.65% # Class of committed instruction
system.cpu0.commit.op_class_0::SimdFloatSqrt            0      0.00%     57.65% # Class of committed instruction
system.cpu0.commit.op_class_0::SimdReduceAdd            0      0.00%     57.65% # Class of committed instruction
system.cpu0.commit.op_class_0::SimdReduceAlu            0      0.00%     57.65% # Class of committed instruction
system.cpu0.commit.op_class_0::SimdReduceCmp            0      0.00%     57.65% # Class of committed instruction
system.cpu0.commit.op_class_0::SimdFloatReduceAdd            0      0.00%     57.65% # Class of committed instruction
system.cpu0.commit.op_class_0::SimdFloatReduceCmp            0      0.00%     57.65% # Class of committed instruction
system.cpu0.commit.op_class_0::SimdAes              0      0.00%     57.65% # Class of committed instruction
system.cpu0.commit.op_class_0::SimdAesMix            0      0.00%     57.65% # Class of committed instruction
system.cpu0.commit.op_class_0::SimdSha1Hash            0      0.00%     57.65% # Class of committed instruction
system.cpu0.commit.op_class_0::SimdSha1Hash2            0      0.00%     57.65% # Class of committed instruction
system.cpu0.commit.op_class_0::SimdSha256Hash            0      0.00%     57.65% # Class of committed instruction
system.cpu0.commit.op_class_0::SimdSha256Hash2            0      0.00%     57.65% # Class of committed instruction
system.cpu0.commit.op_class_0::SimdShaSigma2            0      0.00%     57.65% # Class of committed instruction
system.cpu0.commit.op_class_0::SimdShaSigma3            0      0.00%     57.65% # Class of committed instruction
system.cpu0.commit.op_class_0::SimdPredAlu            0      0.00%     57.65% # Class of committed instruction
system.cpu0.commit.op_class_0::MemRead      407271596     30.89%     88.53% # Class of committed instruction
system.cpu0.commit.op_class_0::MemWrite     151185473     11.47%    100.00% # Class of committed instruction
system.cpu0.commit.op_class_0::FloatMemRead            8      0.00%    100.00% # Class of committed instruction
system.cpu0.commit.op_class_0::FloatMemWrite           20      0.00%    100.00% # Class of committed instruction
system.cpu0.commit.op_class_0::IprAccess            0      0.00%    100.00% # Class of committed instruction
system.cpu0.commit.op_class_0::InstPrefetch            0      0.00%    100.00% # Class of committed instruction
system.cpu0.commit.op_class_0::total       1318665980                       # Class of committed instruction
system.cpu0.commit.refs                     558457097                       # Number of memory references committed
system.cpu0.commit.swp_count                        0                       # Number of s/w prefetches committed
system.cpu0.commit.vec_insts                        0                       # Number of committed Vector instructions.
system.cpu0.committedInsts                 1316562393                       # Number of Instructions Simulated
system.cpu0.committedOps                   1318665980                       # Number of Ops (including micro ops) Simulated
system.cpu0.cpi                              1.959702                       # CPI: Cycles Per Instruction
system.cpu0.cpi_total                        1.959702                       # CPI: Total CPI of All Threads
system.cpu0.decode.BlockedCycles            508494516                       # Number of cycles decode is blocked
system.cpu0.decode.BranchMispred             15209795                       # Number of times decode detected a branch misprediction
system.cpu0.decode.BranchResolved           185647885                       # Number of times decode resolved a branch
system.cpu0.decode.DecodedInsts            1480456640                       # Number of instructions handled by decode
system.cpu0.decode.IdleCycles               839331702                       # Number of cycles decode is idle
system.cpu0.decode.RunCycles               1014316404                       # Number of cycles decode is running
system.cpu0.decode.SquashCycles              15091182                       # Number of cycles decode is squashing
system.cpu0.decode.SquashedInsts             23482370                       # Number of squashed instructions handled by decode
system.cpu0.decode.UnblockCycles              8075120                       # Number of cycles decode is unblocking
system.cpu0.dtb.accesses                            0                       # DTB accesses
system.cpu0.dtb.hits                                0                       # DTB hits
system.cpu0.dtb.misses                              0                       # DTB misses
system.cpu0.dtb.read_accesses                       0                       # DTB read accesses
system.cpu0.dtb.read_hits                           0                       # DTB read hits
system.cpu0.dtb.read_misses                         0                       # DTB read misses
system.cpu0.dtb.write_accesses                      0                       # DTB write accesses
system.cpu0.dtb.write_hits                          0                       # DTB write hits
system.cpu0.dtb.write_misses                        0                       # DTB write misses
system.cpu0.fetch.Branches                  368133314                       # Number of branches that fetch encountered
system.cpu0.fetch.CacheLines                264920877                       # Number of cache lines fetched
system.cpu0.fetch.Cycles                   1540888157                       # Number of cycles fetch has run and was not squashing or blocked
system.cpu0.fetch.IcacheSquashes             12637001                       # Number of outstanding Icache misses that were squashed
system.cpu0.fetch.IcacheWaitRetryStallCycles          129                       # Number of stall cycles due to full MSHR
system.cpu0.fetch.Insts                    1528999042                       # Number of instructions fetch has processed
system.cpu0.fetch.MiscStallCycles                  50                       # Number of cycles fetch has spent waiting on interrupts, or bad addresses, or out of MSHRs
system.cpu0.fetch.PendingTrapStallCycles          237                       # Number of stall cycles due to pending traps
system.cpu0.fetch.SquashCycles               60499774                       # Number of cycles fetch has spent squashing
system.cpu0.fetch.branchRate                 0.142683                       # Number of branch fetches per cycle
system.cpu0.fetch.icacheStallCycles         814170464                       # Number of cycles fetch is stalled on an Icache miss
system.cpu0.fetch.predictedBranches         219736316                       # Number of branches that fetch has predicted taken
system.cpu0.fetch.rate                       0.592619                       # Number of inst fetches per cycle
system.cpu0.fetch.rateDist::samples        2385308924                       # Number of instructions fetched each cycle (Total)
system.cpu0.fetch.rateDist::mean             0.641889                       # Number of instructions fetched each cycle (Total)
system.cpu0.fetch.rateDist::stdev            0.900899                       # Number of instructions fetched each cycle (Total)
system.cpu0.fetch.rateDist::underflows              0      0.00%      0.00% # Number of instructions fetched each cycle (Total)
system.cpu0.fetch.rateDist::0              1311164223     54.97%     54.97% # Number of instructions fetched each cycle (Total)
system.cpu0.fetch.rateDist::1               791655818     33.19%     88.16% # Number of instructions fetched each cycle (Total)
system.cpu0.fetch.rateDist::2               145044231      6.08%     94.24% # Number of instructions fetched each cycle (Total)
system.cpu0.fetch.rateDist::3               112630062      4.72%     98.96% # Number of instructions fetched each cycle (Total)
system.cpu0.fetch.rateDist::4                19454555      0.82%     99.78% # Number of instructions fetched each cycle (Total)
system.cpu0.fetch.rateDist::5                 2721312      0.11%     99.89% # Number of instructions fetched each cycle (Total)
system.cpu0.fetch.rateDist::6                  532817      0.02%     99.91% # Number of instructions fetched each cycle (Total)
system.cpu0.fetch.rateDist::7                     438      0.00%     99.91% # Number of instructions fetched each cycle (Total)
system.cpu0.fetch.rateDist::8                 2105468      0.09%    100.00% # Number of instructions fetched each cycle (Total)
system.cpu0.fetch.rateDist::overflows               0      0.00%    100.00% # Number of instructions fetched each cycle (Total)
system.cpu0.fetch.rateDist::min_value               0                       # Number of instructions fetched each cycle (Total)
system.cpu0.fetch.rateDist::max_value               8                       # Number of instructions fetched each cycle (Total)
system.cpu0.fetch.rateDist::total          2385308924                       # Number of instructions fetched each cycle (Total)
system.cpu0.fp_regfile_reads                       44                       # number of floating regfile reads
system.cpu0.fp_regfile_writes                      23                       # number of floating regfile writes
system.cpu0.idleCycles                      194760850                       # Total number of cycles that the CPU has spent unscheduled due to idling
system.cpu0.iew.branchMispredicts            15210802                       # Number of branch mispredicts detected at execute
system.cpu0.iew.exec_branches               345496635                       # Number of branches executed
system.cpu0.iew.exec_nop                            0                       # number of nop insts executed
system.cpu0.iew.exec_rate                    0.558049                       # Inst execution rate
system.cpu0.iew.exec_refs                   638304994                       # number of memory reference insts executed
system.cpu0.iew.exec_stores                 168018768                       # Number of stores executed
system.cpu0.iew.exec_swp                            0                       # number of swp insts executed
system.cpu0.iew.iewBlockCycles              397535858                       # Number of cycles IEW is blocking
system.cpu0.iew.iewDispLoadInsts            467247914                       # Number of dispatched load instructions
system.cpu0.iew.iewDispNonSpecInsts           2106237                       # Number of dispatched non-speculative instructions
system.cpu0.iew.iewDispSquashedInsts          8666820                       # Number of squashed instructions skipped by dispatch
system.cpu0.iew.iewDispStoreInsts           168871174                       # Number of dispatched store instructions
system.cpu0.iew.iewDispatchedInsts         1453562420                       # Number of instructions dispatched to IQ
system.cpu0.iew.iewExecLoadInsts            470286226                       # Number of load instructions executed
system.cpu0.iew.iewExecSquashedInsts         10646039                       # Number of squashed instructions skipped in execute
system.cpu0.iew.iewExecutedInsts           1439806563                       # Number of executed instructions
system.cpu0.iew.iewIQFullEvents               1720773                       # Number of times the IQ has become full, causing a stall
system.cpu0.iew.iewIdleCycles                       0                       # Number of cycles IEW is idle
system.cpu0.iew.iewLSQFullEvents             15773013                       # Number of times the LSQ has become full, causing a stall
system.cpu0.iew.iewSquashCycles              15091182                       # Number of cycles IEW is squashing
system.cpu0.iew.iewUnblockCycles             20051574                       # Number of cycles IEW is unblocking
system.cpu0.iew.lsq.thread0.blockedLoads            0                       # Number of blocked loads due to partial load-store forwarding
system.cpu0.iew.lsq.thread0.cacheBlocked       256194                       # Number of times an access to memory failed due to the cache being blocked
system.cpu0.iew.lsq.thread0.forwLoads        27363540                       # Number of loads that had data forwarded from stores
system.cpu0.iew.lsq.thread0.ignoredResponses        75310                       # Number of memory responses ignored because the instruction is squashed
system.cpu0.iew.lsq.thread0.invAddrLoads            0                       # Number of loads ignored due to an invalid address
system.cpu0.iew.lsq.thread0.invAddrSwpfs            0                       # Number of software prefetches ignored due to an invalid address
system.cpu0.iew.lsq.thread0.memOrderViolation         9731                       # Number of memory ordering violations
system.cpu0.iew.lsq.thread0.rescheduledLoads      8460094                       # Number of loads that were rescheduled
system.cpu0.iew.lsq.thread0.squashedLoads     62076603                       # Number of loads squashed
system.cpu0.iew.lsq.thread0.squashedStores     15585388                       # Number of stores squashed
system.cpu0.iew.memOrderViolationEvents          9731                       # Number of memory order violations
system.cpu0.iew.predictedNotTakenIncorrect       755721                       # Number of branches that were predicted not taken incorrectly
system.cpu0.iew.predictedTakenIncorrect      14455081                       # Number of branches that were predicted taken incorrectly
system.cpu0.iew.wb_consumers                661006546                       # num instructions consuming a value
system.cpu0.iew.wb_count                   1423846785                       # cumulative count of insts written-back
system.cpu0.iew.wb_fanout                    0.838009                       # average fanout of values written-back
system.cpu0.iew.wb_producers                553929169                       # num instructions producing a value
system.cpu0.iew.wb_rate                      0.551864                       # insts written-back per cycle
system.cpu0.iew.wb_sent                    1423986611                       # cumulative count of insts sent to commit
system.cpu0.int_regfile_reads              1760731247                       # number of integer regfile reads
system.cpu0.int_regfile_writes              922076331                       # number of integer regfile writes
system.cpu0.ipc                              0.510282                       # IPC: Instructions Per Cycle
system.cpu0.ipc_total                        0.510282                       # IPC: Total IPC of All Threads
system.cpu0.iq.FU_type_0::No_OpClass          4205669      0.29%      0.29% # Type of FU issued
system.cpu0.iq.FU_type_0::IntAlu            792954644     54.67%     54.96% # Type of FU issued
system.cpu0.iq.FU_type_0::IntMult            11848457      0.82%     55.78% # Type of FU issued
system.cpu0.iq.FU_type_0::IntDiv              2100486      0.14%     55.92% # Type of FU issued
system.cpu0.iq.FU_type_0::FloatAdd                  0      0.00%     55.92% # Type of FU issued
system.cpu0.iq.FU_type_0::FloatCmp                  4      0.00%     55.92% # Type of FU issued
system.cpu0.iq.FU_type_0::FloatCvt                 12      0.00%     55.92% # Type of FU issued
system.cpu0.iq.FU_type_0::FloatMult                 0      0.00%     55.92% # Type of FU issued
system.cpu0.iq.FU_type_0::FloatMultAcc              0      0.00%     55.92% # Type of FU issued
system.cpu0.iq.FU_type_0::FloatDiv                  2      0.00%     55.92% # Type of FU issued
system.cpu0.iq.FU_type_0::FloatMisc                 4      0.00%     55.92% # Type of FU issued
system.cpu0.iq.FU_type_0::FloatSqrt                 0      0.00%     55.92% # Type of FU issued
system.cpu0.iq.FU_type_0::SimdAdd                   0      0.00%     55.92% # Type of FU issued
system.cpu0.iq.FU_type_0::SimdAddAcc                0      0.00%     55.92% # Type of FU issued
system.cpu0.iq.FU_type_0::SimdAlu                   0      0.00%     55.92% # Type of FU issued
system.cpu0.iq.FU_type_0::SimdCmp                   0      0.00%     55.92% # Type of FU issued
system.cpu0.iq.FU_type_0::SimdCvt                   0      0.00%     55.92% # Type of FU issued
system.cpu0.iq.FU_type_0::SimdMisc                  0      0.00%     55.92% # Type of FU issued
system.cpu0.iq.FU_type_0::SimdMult                  0      0.00%     55.92% # Type of FU issued
system.cpu0.iq.FU_type_0::SimdMultAcc               0      0.00%     55.92% # Type of FU issued
system.cpu0.iq.FU_type_0::SimdShift                 0      0.00%     55.92% # Type of FU issued
system.cpu0.iq.FU_type_0::SimdShiftAcc              0      0.00%     55.92% # Type of FU issued
system.cpu0.iq.FU_type_0::SimdDiv                   0      0.00%     55.92% # Type of FU issued
system.cpu0.iq.FU_type_0::SimdSqrt                  0      0.00%     55.92% # Type of FU issued
system.cpu0.iq.FU_type_0::SimdFloatAdd              0      0.00%     55.92% # Type of FU issued
system.cpu0.iq.FU_type_0::SimdFloatAlu              0      0.00%     55.92% # Type of FU issued
system.cpu0.iq.FU_type_0::SimdFloatCmp              0      0.00%     55.92% # Type of FU issued
system.cpu0.iq.FU_type_0::SimdFloatCvt              0      0.00%     55.92% # Type of FU issued
system.cpu0.iq.FU_type_0::SimdFloatDiv              0      0.00%     55.92% # Type of FU issued
system.cpu0.iq.FU_type_0::SimdFloatMisc             0      0.00%     55.92% # Type of FU issued
system.cpu0.iq.FU_type_0::SimdFloatMult             0      0.00%     55.92% # Type of FU issued
system.cpu0.iq.FU_type_0::SimdFloatMultAcc            0      0.00%     55.92% # Type of FU issued
system.cpu0.iq.FU_type_0::SimdFloatSqrt             0      0.00%     55.92% # Type of FU issued
system.cpu0.iq.FU_type_0::SimdReduceAdd             0      0.00%     55.92% # Type of FU issued
system.cpu0.iq.FU_type_0::SimdReduceAlu             0      0.00%     55.92% # Type of FU issued
system.cpu0.iq.FU_type_0::SimdReduceCmp             0      0.00%     55.92% # Type of FU issued
system.cpu0.iq.FU_type_0::SimdFloatReduceAdd            0      0.00%     55.92% # Type of FU issued
system.cpu0.iq.FU_type_0::SimdFloatReduceCmp            0      0.00%     55.92% # Type of FU issued
system.cpu0.iq.FU_type_0::SimdAes                   0      0.00%     55.92% # Type of FU issued
system.cpu0.iq.FU_type_0::SimdAesMix                0      0.00%     55.92% # Type of FU issued
system.cpu0.iq.FU_type_0::SimdSha1Hash              0      0.00%     55.92% # Type of FU issued
system.cpu0.iq.FU_type_0::SimdSha1Hash2             0      0.00%     55.92% # Type of FU issued
system.cpu0.iq.FU_type_0::SimdSha256Hash            0      0.00%     55.92% # Type of FU issued
system.cpu0.iq.FU_type_0::SimdSha256Hash2            0      0.00%     55.92% # Type of FU issued
system.cpu0.iq.FU_type_0::SimdShaSigma2             0      0.00%     55.92% # Type of FU issued
system.cpu0.iq.FU_type_0::SimdShaSigma3             0      0.00%     55.92% # Type of FU issued
system.cpu0.iq.FU_type_0::SimdPredAlu               0      0.00%     55.92% # Type of FU issued
system.cpu0.iq.FU_type_0::MemRead           473187131     32.62%     88.54% # Type of FU issued
system.cpu0.iq.FU_type_0::MemWrite          166156163     11.46%    100.00% # Type of FU issued
system.cpu0.iq.FU_type_0::FloatMemRead             10      0.00%    100.00% # Type of FU issued
system.cpu0.iq.FU_type_0::FloatMemWrite            20      0.00%    100.00% # Type of FU issued
system.cpu0.iq.FU_type_0::IprAccess                 0      0.00%    100.00% # Type of FU issued
system.cpu0.iq.FU_type_0::InstPrefetch              0      0.00%    100.00% # Type of FU issued
system.cpu0.iq.FU_type_0::total            1450452602                       # Type of FU issued
system.cpu0.iq.fp_alu_accesses                     56                       # Number of floating point alu accesses
system.cpu0.iq.fp_inst_queue_reads                108                       # Number of floating instruction queue reads
system.cpu0.iq.fp_inst_queue_wakeup_accesses           51                       # Number of floating instruction queue wakeup accesses
system.cpu0.iq.fp_inst_queue_writes                66                       # Number of floating instruction queue writes
system.cpu0.iq.fu_busy_cnt                    2989294                       # FU busy when requested
system.cpu0.iq.fu_busy_rate                  0.002061                       # FU busy rate (busy events/executed inst)
system.cpu0.iq.fu_full::No_OpClass                  0      0.00%      0.00% # attempts to use FU when none available
system.cpu0.iq.fu_full::IntAlu                 497637     16.65%     16.65% # attempts to use FU when none available
system.cpu0.iq.fu_full::IntMult                     0      0.00%     16.65% # attempts to use FU when none available
system.cpu0.iq.fu_full::IntDiv                      0      0.00%     16.65% # attempts to use FU when none available
system.cpu0.iq.fu_full::FloatAdd                    0      0.00%     16.65% # attempts to use FU when none available
system.cpu0.iq.fu_full::FloatCmp                    0      0.00%     16.65% # attempts to use FU when none available
system.cpu0.iq.fu_full::FloatCvt                    0      0.00%     16.65% # attempts to use FU when none available
system.cpu0.iq.fu_full::FloatMult                   0      0.00%     16.65% # attempts to use FU when none available
system.cpu0.iq.fu_full::FloatMultAcc                0      0.00%     16.65% # attempts to use FU when none available
system.cpu0.iq.fu_full::FloatDiv                    0      0.00%     16.65% # attempts to use FU when none available
system.cpu0.iq.fu_full::FloatMisc                   0      0.00%     16.65% # attempts to use FU when none available
system.cpu0.iq.fu_full::FloatSqrt                   0      0.00%     16.65% # attempts to use FU when none available
system.cpu0.iq.fu_full::SimdAdd                     0      0.00%     16.65% # attempts to use FU when none available
system.cpu0.iq.fu_full::SimdAddAcc                  0      0.00%     16.65% # attempts to use FU when none available
system.cpu0.iq.fu_full::SimdAlu                     0      0.00%     16.65% # attempts to use FU when none available
system.cpu0.iq.fu_full::SimdCmp                     0      0.00%     16.65% # attempts to use FU when none available
system.cpu0.iq.fu_full::SimdCvt                     0      0.00%     16.65% # attempts to use FU when none available
system.cpu0.iq.fu_full::SimdMisc                    0      0.00%     16.65% # attempts to use FU when none available
system.cpu0.iq.fu_full::SimdMult                    0      0.00%     16.65% # attempts to use FU when none available
system.cpu0.iq.fu_full::SimdMultAcc                 0      0.00%     16.65% # attempts to use FU when none available
system.cpu0.iq.fu_full::SimdShift                   0      0.00%     16.65% # attempts to use FU when none available
system.cpu0.iq.fu_full::SimdShiftAcc                0      0.00%     16.65% # attempts to use FU when none available
system.cpu0.iq.fu_full::SimdDiv                     0      0.00%     16.65% # attempts to use FU when none available
system.cpu0.iq.fu_full::SimdSqrt                    0      0.00%     16.65% # attempts to use FU when none available
system.cpu0.iq.fu_full::SimdFloatAdd                0      0.00%     16.65% # attempts to use FU when none available
system.cpu0.iq.fu_full::SimdFloatAlu                0      0.00%     16.65% # attempts to use FU when none available
system.cpu0.iq.fu_full::SimdFloatCmp                0      0.00%     16.65% # attempts to use FU when none available
system.cpu0.iq.fu_full::SimdFloatCvt                0      0.00%     16.65% # attempts to use FU when none available
system.cpu0.iq.fu_full::SimdFloatDiv                0      0.00%     16.65% # attempts to use FU when none available
system.cpu0.iq.fu_full::SimdFloatMisc               0      0.00%     16.65% # attempts to use FU when none available
system.cpu0.iq.fu_full::SimdFloatMult               0      0.00%     16.65% # attempts to use FU when none available
system.cpu0.iq.fu_full::SimdFloatMultAcc            0      0.00%     16.65% # attempts to use FU when none available
system.cpu0.iq.fu_full::SimdFloatSqrt               0      0.00%     16.65% # attempts to use FU when none available
system.cpu0.iq.fu_full::SimdReduceAdd               0      0.00%     16.65% # attempts to use FU when none available
system.cpu0.iq.fu_full::SimdReduceAlu               0      0.00%     16.65% # attempts to use FU when none available
system.cpu0.iq.fu_full::SimdReduceCmp               0      0.00%     16.65% # attempts to use FU when none available
system.cpu0.iq.fu_full::SimdFloatReduceAdd            0      0.00%     16.65% # attempts to use FU when none available
system.cpu0.iq.fu_full::SimdFloatReduceCmp            0      0.00%     16.65% # attempts to use FU when none available
system.cpu0.iq.fu_full::SimdAes                     0      0.00%     16.65% # attempts to use FU when none available
system.cpu0.iq.fu_full::SimdAesMix                  0      0.00%     16.65% # attempts to use FU when none available
system.cpu0.iq.fu_full::SimdSha1Hash                0      0.00%     16.65% # attempts to use FU when none available
system.cpu0.iq.fu_full::SimdSha1Hash2               0      0.00%     16.65% # attempts to use FU when none available
system.cpu0.iq.fu_full::SimdSha256Hash              0      0.00%     16.65% # attempts to use FU when none available
system.cpu0.iq.fu_full::SimdSha256Hash2             0      0.00%     16.65% # attempts to use FU when none available
system.cpu0.iq.fu_full::SimdShaSigma2               0      0.00%     16.65% # attempts to use FU when none available
system.cpu0.iq.fu_full::SimdShaSigma3               0      0.00%     16.65% # attempts to use FU when none available
system.cpu0.iq.fu_full::SimdPredAlu                 0      0.00%     16.65% # attempts to use FU when none available
system.cpu0.iq.fu_full::MemRead               2011265     67.28%     83.93% # attempts to use FU when none available
system.cpu0.iq.fu_full::MemWrite               480388     16.07%    100.00% # attempts to use FU when none available
system.cpu0.iq.fu_full::FloatMemRead                0      0.00%    100.00% # attempts to use FU when none available
system.cpu0.iq.fu_full::FloatMemWrite               4      0.00%    100.00% # attempts to use FU when none available
system.cpu0.iq.fu_full::IprAccess                   0      0.00%    100.00% # attempts to use FU when none available
system.cpu0.iq.fu_full::InstPrefetch                0      0.00%    100.00% # attempts to use FU when none available
system.cpu0.iq.int_alu_accesses            1449236171                       # Number of integer alu accesses
system.cpu0.iq.int_inst_queue_reads        5289438811                       # Number of integer instruction queue reads
system.cpu0.iq.int_inst_queue_wakeup_accesses   1423846734                       # Number of integer instruction queue wakeup accesses
system.cpu0.iq.int_inst_queue_writes       1588468133                       # Number of integer instruction queue writes
system.cpu0.iq.iqInstsAdded                1447252263                       # Number of instructions added to the IQ (excludes non-spec)
system.cpu0.iq.iqInstsIssued               1450452602                       # Number of instructions issued
system.cpu0.iq.iqNonSpecInstsAdded            6310157                       # Number of non-speculative instructions added to the IQ
system.cpu0.iq.iqSquashedInstsExamined      134896437                       # Number of squashed instructions iterated over during squash; mainly for profiling
system.cpu0.iq.iqSquashedInstsIssued           235497                       # Number of squashed instructions issued
system.cpu0.iq.iqSquashedNonSpecRemoved           362                       # Number of squashed non-spec instructions that were removed
system.cpu0.iq.iqSquashedOperandsExamined     25178764                       # Number of squashed operands that are examined and possibly removed from graph
system.cpu0.iq.issued_per_cycle::samples   2385308924                       # Number of insts issued each cycle
system.cpu0.iq.issued_per_cycle::mean        0.608077                       # Number of insts issued each cycle
system.cpu0.iq.issued_per_cycle::stdev       0.860012                       # Number of insts issued each cycle
system.cpu0.iq.issued_per_cycle::underflows            0      0.00%      0.00% # Number of insts issued each cycle
system.cpu0.iq.issued_per_cycle::0         1374924515     57.64%     57.64% # Number of insts issued each cycle
system.cpu0.iq.issued_per_cycle::1          691243524     28.98%     86.62% # Number of insts issued each cycle
system.cpu0.iq.issued_per_cycle::2          224205115      9.40%     96.02% # Number of insts issued each cycle
system.cpu0.iq.issued_per_cycle::3           75499076      3.17%     99.19% # Number of insts issued each cycle
system.cpu0.iq.issued_per_cycle::4           15964181      0.67%     99.85% # Number of insts issued each cycle
system.cpu0.iq.issued_per_cycle::5            1352955      0.06%     99.91% # Number of insts issued each cycle
system.cpu0.iq.issued_per_cycle::6            1448417      0.06%     99.97% # Number of insts issued each cycle
system.cpu0.iq.issued_per_cycle::7             379509      0.02%     99.99% # Number of insts issued each cycle
system.cpu0.iq.issued_per_cycle::8             291632      0.01%    100.00% # Number of insts issued each cycle
system.cpu0.iq.issued_per_cycle::overflows            0      0.00%    100.00% # Number of insts issued each cycle
system.cpu0.iq.issued_per_cycle::min_value            0                       # Number of insts issued each cycle
system.cpu0.iq.issued_per_cycle::max_value            8                       # Number of insts issued each cycle
system.cpu0.iq.issued_per_cycle::total     2385308924                       # Number of insts issued each cycle
system.cpu0.iq.rate                          0.562176                       # Inst issue rate
system.cpu0.iq.vec_alu_accesses                     0                       # Number of vector alu accesses
system.cpu0.iq.vec_inst_queue_reads                 0                       # Number of vector instruction queue reads
system.cpu0.iq.vec_inst_queue_wakeup_accesses            0                       # Number of vector instruction queue wakeup accesses
system.cpu0.iq.vec_inst_queue_writes                0                       # Number of vector instruction queue writes
system.cpu0.itb.accesses                            0                       # DTB accesses
system.cpu0.itb.hits                                0                       # DTB hits
system.cpu0.itb.misses                              0                       # DTB misses
system.cpu0.itb.read_accesses                       0                       # DTB read accesses
system.cpu0.itb.read_hits                           0                       # DTB read hits
system.cpu0.itb.read_misses                         0                       # DTB read misses
system.cpu0.itb.write_accesses                      0                       # DTB write accesses
system.cpu0.itb.write_hits                          0                       # DTB write hits
system.cpu0.itb.write_misses                        0                       # DTB write misses
system.cpu0.memDep0.conflictingLoads         19016176                       # Number of conflicting loads.
system.cpu0.memDep0.conflictingStores         3484909                       # Number of conflicting stores.
system.cpu0.memDep0.insertedLoads           467247914                       # Number of loads inserted to the mem dependence unit.
system.cpu0.memDep0.insertedStores          168871174                       # Number of stores inserted to the mem dependence unit.
system.cpu0.misc_regfile_reads                   1898                       # number of misc regfile reads
system.cpu0.misc_regfile_writes                    22                       # number of misc regfile writes
system.cpu0.numCycles                      2580069774                       # number of cpu cycles simulated
system.cpu0.numWorkItemsCompleted                   0                       # number of work items this cpu completed
system.cpu0.numWorkItemsStarted                     0                       # number of work items this cpu started
system.cpu0.quiesceCycles                     8947370                       # Total number of cycles that CPU has spent quiesced or waiting for an interrupt
system.cpu0.rename.BlockCycles              435593646                       # Number of cycles rename is blocking
system.cpu0.rename.CommittedMaps            845206597                       # Number of HB maps that are committed
system.cpu0.rename.IQFullEvents              14644183                       # Number of times rename has blocked due to IQ full
system.cpu0.rename.IdleCycles               853762661                       # Number of cycles rename is idle
system.cpu0.rename.LQFullEvents              22653884                       # Number of times rename has blocked due to LQ full
system.cpu0.rename.ROBFullEvents                67874                       # Number of times rename has blocked due to ROB full
system.cpu0.rename.RenameLookups           1802603846                       # Number of register rename lookups that rename has made
system.cpu0.rename.RenamedInsts            1475193016                       # Number of instructions processed by rename
system.cpu0.rename.RenamedOperands          965699420                       # Number of destination operands rename has renamed
system.cpu0.rename.RunCycles               1006238037                       # Number of cycles rename is running
system.cpu0.rename.SQFullEvents              36380688                       # Number of times rename has blocked due to SQ full
system.cpu0.rename.SquashCycles              15091182                       # Number of cycles rename is squashing
system.cpu0.rename.UnblockCycles             74475318                       # Number of cycles rename is unblocking
system.cpu0.rename.UndoneMaps               120492819                       # Number of HB maps that are undone due to squashing
system.cpu0.rename.fp_rename_lookups               44                       # Number of floating rename lookups
system.cpu0.rename.int_rename_lookups      1802603802                       # Number of integer rename lookups
system.cpu0.rename.serializeStallCycles        148080                       # count of cycles rename stalled for serializing inst
system.cpu0.rename.serializingInsts              5834                       # count of serializing insts renamed
system.cpu0.rename.skidInsts                 33162784                       # count of insts added to the skid buffer
system.cpu0.rename.tempSerializingInsts          5819                       # count of temporary serializing insts renamed
system.cpu0.rob.rob_reads                  3766857603                       # The number of ROB reads
system.cpu0.rob.rob_writes                 2937878695                       # The number of ROB writes
system.cpu0.timesIdled                       23352756                       # Number of times that the entire CPU went into an idle state and unscheduled itself
system.cpu0.workload.numSyscalls                 1865                       # Number of system calls
system.cpu1.branchPred.BTBCorrect                   0                       # Number of correct BTB predictions (this stat may not work properly.
system.cpu1.branchPred.BTBHitPct            86.710373                       # BTB Hit Percentage
system.cpu1.branchPred.BTBHits               20924016                       # Number of BTB hits
system.cpu1.branchPred.BTBLookups            24130926                       # Number of BTB lookups
system.cpu1.branchPred.RASInCorrect                 0                       # Number of incorrect RAS predictions.
system.cpu1.branchPred.condIncorrect          2793598                       # Number of conditional branches incorrect
system.cpu1.branchPred.condPredicted         30775994                       # Number of conditional branches predicted
system.cpu1.branchPred.indirectHits           1097576                       # Number of indirect target hits.
system.cpu1.branchPred.indirectLookups        1117349                       # Number of indirect predictor lookups.
system.cpu1.branchPred.indirectMisses           19773                       # Number of indirect misses.
system.cpu1.branchPred.lookups               35458709                       # Number of BP lookups
system.cpu1.branchPred.usedRAS                      0                       # Number of times the RAS was used to get a target.
system.cpu1.branchPredindirectMispredicted        48169                       # Number of mispredicted indirect branches.
system.cpu1.commit.amos                       2099997                       # Number of atomic instructions committed
system.cpu1.commit.branchMispredicts          1991142                       # The number of times a branch was mispredicted
system.cpu1.commit.branches                  28117352                       # Number of branches committed
system.cpu1.commit.bw_lim_events              3709684                       # number cycles where commit BW limit reached
system.cpu1.commit.commitNonSpecStalls        6300661                       # The number of times commit has been forced to stall to communicate backwards
system.cpu1.commit.commitSquashedInsts       16656209                       # The number of squashed insts skipped by commit
system.cpu1.commit.committedInsts           120055984                       # Number of instructions committed
system.cpu1.commit.committedOps             122156157                       # Number of ops (including micro ops) committed
system.cpu1.commit.committed_per_cycle::samples    513946439                       # Number of insts commited each cycle
system.cpu1.commit.committed_per_cycle::mean     0.237683                       # Number of insts commited each cycle
system.cpu1.commit.committed_per_cycle::stdev     0.973579                       # Number of insts commited each cycle
system.cpu1.commit.committed_per_cycle::underflows            0      0.00%      0.00% # Number of insts commited each cycle
system.cpu1.commit.committed_per_cycle::0    463510810     90.19%     90.19% # Number of insts commited each cycle
system.cpu1.commit.committed_per_cycle::1     25408865      4.94%     95.13% # Number of insts commited each cycle
system.cpu1.commit.committed_per_cycle::2      9085645      1.77%     96.90% # Number of insts commited each cycle
system.cpu1.commit.committed_per_cycle::3      6893218      1.34%     98.24% # Number of insts commited each cycle
system.cpu1.commit.committed_per_cycle::4      1748322      0.34%     98.58% # Number of insts commited each cycle
system.cpu1.commit.committed_per_cycle::5       920531      0.18%     98.76% # Number of insts commited each cycle
system.cpu1.commit.committed_per_cycle::6      2062615      0.40%     99.16% # Number of insts commited each cycle
system.cpu1.commit.committed_per_cycle::7       606749      0.12%     99.28% # Number of insts commited each cycle
system.cpu1.commit.committed_per_cycle::8      3709684      0.72%    100.00% # Number of insts commited each cycle
system.cpu1.commit.committed_per_cycle::overflows            0      0.00%    100.00% # Number of insts commited each cycle
system.cpu1.commit.committed_per_cycle::min_value            0                       # Number of insts commited each cycle
system.cpu1.commit.committed_per_cycle::max_value            8                       # Number of insts commited each cycle
system.cpu1.commit.committed_per_cycle::total    513946439                       # Number of insts commited each cycle
system.cpu1.commit.fp_insts                        12                       # Number of committed floating point instructions.
system.cpu1.commit.function_calls             1797697                       # Number of function calls committed.
system.cpu1.commit.int_insts                116593478                       # Number of committed integer instructions.
system.cpu1.commit.loads                     30174404                       # Number of loads committed
system.cpu1.commit.membars                    4200107                       # Number of memory barriers committed
system.cpu1.commit.op_class_0::No_OpClass      4200107      3.44%      3.44% # Class of committed instruction
system.cpu1.commit.op_class_0::IntAlu        76661399     62.76%     66.20% # Class of committed instruction
system.cpu1.commit.op_class_0::IntMult             44      0.00%     66.20% # Class of committed instruction
system.cpu1.commit.op_class_0::IntDiv              88      0.00%     66.20% # Class of committed instruction
system.cpu1.commit.op_class_0::FloatAdd             0      0.00%     66.20% # Class of committed instruction
system.cpu1.commit.op_class_0::FloatCmp             0      0.00%     66.20% # Class of committed instruction
system.cpu1.commit.op_class_0::FloatCvt             0      0.00%     66.20% # Class of committed instruction
system.cpu1.commit.op_class_0::FloatMult            0      0.00%     66.20% # Class of committed instruction
system.cpu1.commit.op_class_0::FloatMultAcc            0      0.00%     66.20% # Class of committed instruction
system.cpu1.commit.op_class_0::FloatDiv             0      0.00%     66.20% # Class of committed instruction
system.cpu1.commit.op_class_0::FloatMisc            0      0.00%     66.20% # Class of committed instruction
system.cpu1.commit.op_class_0::FloatSqrt            0      0.00%     66.20% # Class of committed instruction
system.cpu1.commit.op_class_0::SimdAdd              0      0.00%     66.20% # Class of committed instruction
system.cpu1.commit.op_class_0::SimdAddAcc            0      0.00%     66.20% # Class of committed instruction
system.cpu1.commit.op_class_0::SimdAlu              0      0.00%     66.20% # Class of committed instruction
system.cpu1.commit.op_class_0::SimdCmp              0      0.00%     66.20% # Class of committed instruction
system.cpu1.commit.op_class_0::SimdCvt              0      0.00%     66.20% # Class of committed instruction
system.cpu1.commit.op_class_0::SimdMisc             0      0.00%     66.20% # Class of committed instruction
system.cpu1.commit.op_class_0::SimdMult             0      0.00%     66.20% # Class of committed instruction
system.cpu1.commit.op_class_0::SimdMultAcc            0      0.00%     66.20% # Class of committed instruction
system.cpu1.commit.op_class_0::SimdShift            0      0.00%     66.20% # Class of committed instruction
system.cpu1.commit.op_class_0::SimdShiftAcc            0      0.00%     66.20% # Class of committed instruction
system.cpu1.commit.op_class_0::SimdDiv              0      0.00%     66.20% # Class of committed instruction
system.cpu1.commit.op_class_0::SimdSqrt             0      0.00%     66.20% # Class of committed instruction
system.cpu1.commit.op_class_0::SimdFloatAdd            0      0.00%     66.20% # Class of committed instruction
system.cpu1.commit.op_class_0::SimdFloatAlu            0      0.00%     66.20% # Class of committed instruction
system.cpu1.commit.op_class_0::SimdFloatCmp            0      0.00%     66.20% # Class of committed instruction
system.cpu1.commit.op_class_0::SimdFloatCvt            0      0.00%     66.20% # Class of committed instruction
system.cpu1.commit.op_class_0::SimdFloatDiv            0      0.00%     66.20% # Class of committed instruction
system.cpu1.commit.op_class_0::SimdFloatMisc            0      0.00%     66.20% # Class of committed instruction
system.cpu1.commit.op_class_0::SimdFloatMult            0      0.00%     66.20% # Class of committed instruction
system.cpu1.commit.op_class_0::SimdFloatMultAcc            0      0.00%     66.20% # Class of committed instruction
system.cpu1.commit.op_class_0::SimdFloatSqrt            0      0.00%     66.20% # Class of committed instruction
system.cpu1.commit.op_class_0::SimdReduceAdd            0      0.00%     66.20% # Class of committed instruction
system.cpu1.commit.op_class_0::SimdReduceAlu            0      0.00%     66.20% # Class of committed instruction
system.cpu1.commit.op_class_0::SimdReduceCmp            0      0.00%     66.20% # Class of committed instruction
system.cpu1.commit.op_class_0::SimdFloatReduceAdd            0      0.00%     66.20% # Class of committed instruction
system.cpu1.commit.op_class_0::SimdFloatReduceCmp            0      0.00%     66.20% # Class of committed instruction
system.cpu1.commit.op_class_0::SimdAes              0      0.00%     66.20% # Class of committed instruction
system.cpu1.commit.op_class_0::SimdAesMix            0      0.00%     66.20% # Class of committed instruction
system.cpu1.commit.op_class_0::SimdSha1Hash            0      0.00%     66.20% # Class of committed instruction
system.cpu1.commit.op_class_0::SimdSha1Hash2            0      0.00%     66.20% # Class of committed instruction
system.cpu1.commit.op_class_0::SimdSha256Hash            0      0.00%     66.20% # Class of committed instruction
system.cpu1.commit.op_class_0::SimdSha256Hash2            0      0.00%     66.20% # Class of committed instruction
system.cpu1.commit.op_class_0::SimdShaSigma2            0      0.00%     66.20% # Class of committed instruction
system.cpu1.commit.op_class_0::SimdShaSigma3            0      0.00%     66.20% # Class of committed instruction
system.cpu1.commit.op_class_0::SimdPredAlu            0      0.00%     66.20% # Class of committed instruction
system.cpu1.commit.op_class_0::MemRead       32274401     26.42%     92.62% # Class of committed instruction
system.cpu1.commit.op_class_0::MemWrite       9020106      7.38%    100.00% # Class of committed instruction
system.cpu1.commit.op_class_0::FloatMemRead            0      0.00%    100.00% # Class of committed instruction
system.cpu1.commit.op_class_0::FloatMemWrite           12      0.00%    100.00% # Class of committed instruction
system.cpu1.commit.op_class_0::IprAccess            0      0.00%    100.00% # Class of committed instruction
system.cpu1.commit.op_class_0::InstPrefetch            0      0.00%    100.00% # Class of committed instruction
system.cpu1.commit.op_class_0::total        122156157                       # Class of committed instruction
system.cpu1.commit.refs                      41294519                       # Number of memory references committed
system.cpu1.commit.swp_count                        0                       # Number of s/w prefetches committed
system.cpu1.commit.vec_insts                        0                       # Number of committed Vector instructions.
system.cpu1.committedInsts                  120055984                       # Number of Instructions Simulated
system.cpu1.committedOps                    122156157                       # Number of Ops (including micro ops) Simulated
system.cpu1.cpi                              4.317526                       # CPI: Cycles Per Instruction
system.cpu1.cpi_total                        4.317526                       # CPI: Total CPI of All Threads
system.cpu1.decode.BlockedCycles            415849750                       # Number of cycles decode is blocked
system.cpu1.decode.BranchMispred               848943                       # Number of times decode detected a branch misprediction
system.cpu1.decode.BranchResolved            19761497                       # Number of times decode resolved a branch
system.cpu1.decode.DecodedInsts             145585423                       # Number of instructions handled by decode
system.cpu1.decode.IdleCycles                27014455                       # Number of cycles decode is idle
system.cpu1.decode.RunCycles                 67782485                       # Number of cycles decode is running
system.cpu1.decode.SquashCycles               1992779                       # Number of cycles decode is squashing
system.cpu1.decode.SquashedInsts              2156104                       # Number of squashed instructions handled by decode
system.cpu1.decode.UnblockCycles              4761930                       # Number of cycles decode is unblocking
system.cpu1.dtb.accesses                            0                       # DTB accesses
system.cpu1.dtb.hits                                0                       # DTB hits
system.cpu1.dtb.misses                              0                       # DTB misses
system.cpu1.dtb.read_accesses                       0                       # DTB read accesses
system.cpu1.dtb.read_hits                           0                       # DTB read hits
system.cpu1.dtb.read_misses                         0                       # DTB read misses
system.cpu1.dtb.write_accesses                      0                       # DTB write accesses
system.cpu1.dtb.write_hits                          0                       # DTB write hits
system.cpu1.dtb.write_misses                        0                       # DTB write misses
system.cpu1.fetch.Branches                   35458709                       # Number of branches that fetch encountered
system.cpu1.fetch.CacheLines                 25572829                       # Number of cache lines fetched
system.cpu1.fetch.Cycles                    486274658                       # Number of cycles fetch has run and was not squashing or blocked
system.cpu1.fetch.IcacheSquashes               481244                       # Number of outstanding Icache misses that were squashed
system.cpu1.fetch.Insts                     152163578                       # Number of instructions fetch has processed
system.cpu1.fetch.MiscStallCycles                   1                       # Number of cycles fetch has spent waiting on interrupts, or bad addresses, or out of MSHRs
system.cpu1.fetch.SquashCycles                5590470                       # Number of cycles fetch has spent squashing
system.cpu1.fetch.branchRate                 0.068408                       # Number of branch fetches per cycle
system.cpu1.fetch.icacheStallCycles          28331505                       # Number of cycles fetch is stalled on an Icache miss
system.cpu1.fetch.predictedBranches          22021592                       # Number of branches that fetch has predicted taken
system.cpu1.fetch.rate                       0.293557                       # Number of inst fetches per cycle
system.cpu1.fetch.rateDist::samples         517401399                       # Number of instructions fetched each cycle (Total)
system.cpu1.fetch.rateDist::mean             0.298153                       # Number of instructions fetched each cycle (Total)
system.cpu1.fetch.rateDist::stdev            0.713302                       # Number of instructions fetched each cycle (Total)
system.cpu1.fetch.rateDist::underflows              0      0.00%      0.00% # Number of instructions fetched each cycle (Total)
system.cpu1.fetch.rateDist::0               417440078     80.68%     80.68% # Number of instructions fetched each cycle (Total)
system.cpu1.fetch.rateDist::1                64182505     12.40%     93.08% # Number of instructions fetched each cycle (Total)
system.cpu1.fetch.rateDist::2                20613756      3.98%     97.07% # Number of instructions fetched each cycle (Total)
system.cpu1.fetch.rateDist::3                12796828      2.47%     99.54% # Number of instructions fetched each cycle (Total)
system.cpu1.fetch.rateDist::4                 1689969      0.33%     99.87% # Number of instructions fetched each cycle (Total)
system.cpu1.fetch.rateDist::5                  365818      0.07%     99.94% # Number of instructions fetched each cycle (Total)
system.cpu1.fetch.rateDist::6                  312208      0.06%    100.00% # Number of instructions fetched each cycle (Total)
system.cpu1.fetch.rateDist::7                      12      0.00%    100.00% # Number of instructions fetched each cycle (Total)
system.cpu1.fetch.rateDist::8                     225      0.00%    100.00% # Number of instructions fetched each cycle (Total)
system.cpu1.fetch.rateDist::overflows               0      0.00%    100.00% # Number of instructions fetched each cycle (Total)
system.cpu1.fetch.rateDist::min_value               0                       # Number of instructions fetched each cycle (Total)
system.cpu1.fetch.rateDist::max_value               8                       # Number of instructions fetched each cycle (Total)
system.cpu1.fetch.rateDist::total           517401399                       # Number of instructions fetched each cycle (Total)
system.cpu1.fp_regfile_reads                       12                       # number of floating regfile reads
system.cpu1.idleCycles                         943490                       # Total number of cycles that the CPU has spent unscheduled due to idling
system.cpu1.iew.branchMispredicts             2089326                       # Number of branch mispredicts detected at execute
system.cpu1.iew.exec_branches                30502979                       # Number of branches executed
system.cpu1.iew.exec_nop                            0                       # number of nop insts executed
system.cpu1.iew.exec_rate                    0.257671                       # Inst execution rate
system.cpu1.iew.exec_refs                    45644893                       # number of memory reference insts executed
system.cpu1.iew.exec_stores                  11556293                       # Number of stores executed
system.cpu1.iew.exec_swp                            0                       # number of swp insts executed
system.cpu1.iew.iewBlockCycles              334873438                       # Number of cycles IEW is blocking
system.cpu1.iew.iewDispLoadInsts             34706293                       # Number of dispatched load instructions
system.cpu1.iew.iewDispNonSpecInsts           2100683                       # Number of dispatched non-speculative instructions
system.cpu1.iew.iewDispSquashedInsts          2048543                       # Number of squashed instructions skipped by dispatch
system.cpu1.iew.iewDispStoreInsts            12038093                       # Number of dispatched store instructions
system.cpu1.iew.iewDispatchedInsts          138766757                       # Number of instructions dispatched to IQ
system.cpu1.iew.iewExecLoadInsts             34088600                       # Number of load instructions executed
system.cpu1.iew.iewExecSquashedInsts          1992979                       # Number of squashed instructions skipped in execute
system.cpu1.iew.iewExecutedInsts            133562504                       # Number of executed instructions
system.cpu1.iew.iewIQFullEvents               1548751                       # Number of times the IQ has become full, causing a stall
system.cpu1.iew.iewIdleCycles                       0                       # Number of cycles IEW is idle
system.cpu1.iew.iewLSQFullEvents             12644076                       # Number of times the LSQ has become full, causing a stall
system.cpu1.iew.iewSquashCycles               1992779                       # Number of cycles IEW is squashing
system.cpu1.iew.iewUnblockCycles             16720497                       # Number of cycles IEW is unblocking
system.cpu1.iew.lsq.thread0.blockedLoads            0                       # Number of blocked loads due to partial load-store forwarding
system.cpu1.iew.lsq.thread0.cacheBlocked       107963                       # Number of times an access to memory failed due to the cache being blocked
system.cpu1.iew.lsq.thread0.forwLoads         1171645                       # Number of loads that had data forwarded from stores
system.cpu1.iew.lsq.thread0.ignoredResponses        48616                       # Number of memory responses ignored because the instruction is squashed
system.cpu1.iew.lsq.thread0.invAddrLoads            0                       # Number of loads ignored due to an invalid address
system.cpu1.iew.lsq.thread0.invAddrSwpfs            0                       # Number of software prefetches ignored due to an invalid address
system.cpu1.iew.lsq.thread0.memOrderViolation         2223                       # Number of memory ordering violations
system.cpu1.iew.lsq.thread0.rescheduledLoads        18507                       # Number of loads that were rescheduled
system.cpu1.iew.lsq.thread0.squashedLoads      4531889                       # Number of loads squashed
system.cpu1.iew.lsq.thread0.squashedStores       917978                       # Number of stores squashed
system.cpu1.iew.memOrderViolationEvents          2223                       # Number of memory order violations
system.cpu1.iew.predictedNotTakenIncorrect       546050                       # Number of branches that were predicted not taken incorrectly
system.cpu1.iew.predictedTakenIncorrect       1543276                       # Number of branches that were predicted taken incorrectly
system.cpu1.iew.wb_consumers                 77556864                       # num instructions consuming a value
system.cpu1.iew.wb_count                    131980982                       # cumulative count of insts written-back
system.cpu1.iew.wb_fanout                    0.831686                       # average fanout of values written-back
system.cpu1.iew.wb_producers                 64502993                       # num instructions producing a value
system.cpu1.iew.wb_rate                      0.254620                       # insts written-back per cycle
system.cpu1.iew.wb_sent                     132063322                       # cumulative count of insts sent to commit
system.cpu1.int_regfile_reads               169333579                       # number of integer regfile reads
system.cpu1.int_regfile_writes               88932268                       # number of integer regfile writes
system.cpu1.ipc                              0.231614                       # IPC: Instructions Per Cycle
system.cpu1.ipc_total                        0.231614                       # IPC: Total IPC of All Threads
system.cpu1.iq.FU_type_0::No_OpClass          4200214      3.10%      3.10% # Type of FU issued
system.cpu1.iq.FU_type_0::IntAlu             85125211     62.80%     65.90% # Type of FU issued
system.cpu1.iq.FU_type_0::IntMult                  47      0.00%     65.90% # Type of FU issued
system.cpu1.iq.FU_type_0::IntDiv                   90      0.00%     65.90% # Type of FU issued
system.cpu1.iq.FU_type_0::FloatAdd                  0      0.00%     65.90% # Type of FU issued
system.cpu1.iq.FU_type_0::FloatCmp                  0      0.00%     65.90% # Type of FU issued
system.cpu1.iq.FU_type_0::FloatCvt                  0      0.00%     65.90% # Type of FU issued
system.cpu1.iq.FU_type_0::FloatMult                 0      0.00%     65.90% # Type of FU issued
system.cpu1.iq.FU_type_0::FloatMultAcc              0      0.00%     65.90% # Type of FU issued
system.cpu1.iq.FU_type_0::FloatDiv                  0      0.00%     65.90% # Type of FU issued
system.cpu1.iq.FU_type_0::FloatMisc                 0      0.00%     65.90% # Type of FU issued
system.cpu1.iq.FU_type_0::FloatSqrt                 0      0.00%     65.90% # Type of FU issued
system.cpu1.iq.FU_type_0::SimdAdd                   0      0.00%     65.90% # Type of FU issued
system.cpu1.iq.FU_type_0::SimdAddAcc                0      0.00%     65.90% # Type of FU issued
system.cpu1.iq.FU_type_0::SimdAlu                   0      0.00%     65.90% # Type of FU issued
system.cpu1.iq.FU_type_0::SimdCmp                   0      0.00%     65.90% # Type of FU issued
system.cpu1.iq.FU_type_0::SimdCvt                   0      0.00%     65.90% # Type of FU issued
system.cpu1.iq.FU_type_0::SimdMisc                  0      0.00%     65.90% # Type of FU issued
system.cpu1.iq.FU_type_0::SimdMult                  0      0.00%     65.90% # Type of FU issued
system.cpu1.iq.FU_type_0::SimdMultAcc               0      0.00%     65.90% # Type of FU issued
system.cpu1.iq.FU_type_0::SimdShift                 0      0.00%     65.90% # Type of FU issued
system.cpu1.iq.FU_type_0::SimdShiftAcc              0      0.00%     65.90% # Type of FU issued
system.cpu1.iq.FU_type_0::SimdDiv                   0      0.00%     65.90% # Type of FU issued
system.cpu1.iq.FU_type_0::SimdSqrt                  0      0.00%     65.90% # Type of FU issued
system.cpu1.iq.FU_type_0::SimdFloatAdd              0      0.00%     65.90% # Type of FU issued
system.cpu1.iq.FU_type_0::SimdFloatAlu              0      0.00%     65.90% # Type of FU issued
system.cpu1.iq.FU_type_0::SimdFloatCmp              0      0.00%     65.90% # Type of FU issued
system.cpu1.iq.FU_type_0::SimdFloatCvt              0      0.00%     65.90% # Type of FU issued
system.cpu1.iq.FU_type_0::SimdFloatDiv              0      0.00%     65.90% # Type of FU issued
system.cpu1.iq.FU_type_0::SimdFloatMisc             0      0.00%     65.90% # Type of FU issued
system.cpu1.iq.FU_type_0::SimdFloatMult             0      0.00%     65.90% # Type of FU issued
system.cpu1.iq.FU_type_0::SimdFloatMultAcc            0      0.00%     65.90% # Type of FU issued
system.cpu1.iq.FU_type_0::SimdFloatSqrt             0      0.00%     65.90% # Type of FU issued
system.cpu1.iq.FU_type_0::SimdReduceAdd             0      0.00%     65.90% # Type of FU issued
system.cpu1.iq.FU_type_0::SimdReduceAlu             0      0.00%     65.90% # Type of FU issued
system.cpu1.iq.FU_type_0::SimdReduceCmp             0      0.00%     65.90% # Type of FU issued
system.cpu1.iq.FU_type_0::SimdFloatReduceAdd            0      0.00%     65.90% # Type of FU issued
system.cpu1.iq.FU_type_0::SimdFloatReduceCmp            0      0.00%     65.90% # Type of FU issued
system.cpu1.iq.FU_type_0::SimdAes                   0      0.00%     65.90% # Type of FU issued
system.cpu1.iq.FU_type_0::SimdAesMix                0      0.00%     65.90% # Type of FU issued
system.cpu1.iq.FU_type_0::SimdSha1Hash              0      0.00%     65.90% # Type of FU issued
system.cpu1.iq.FU_type_0::SimdSha1Hash2             0      0.00%     65.90% # Type of FU issued
system.cpu1.iq.FU_type_0::SimdSha256Hash            0      0.00%     65.90% # Type of FU issued
system.cpu1.iq.FU_type_0::SimdSha256Hash2            0      0.00%     65.90% # Type of FU issued
system.cpu1.iq.FU_type_0::SimdShaSigma2             0      0.00%     65.90% # Type of FU issued
system.cpu1.iq.FU_type_0::SimdShaSigma3             0      0.00%     65.90% # Type of FU issued
system.cpu1.iq.FU_type_0::SimdPredAlu               0      0.00%     65.90% # Type of FU issued
system.cpu1.iq.FU_type_0::MemRead            36687754     27.06%     92.96% # Type of FU issued
system.cpu1.iq.FU_type_0::MemWrite            9542155      7.04%    100.00% # Type of FU issued
system.cpu1.iq.FU_type_0::FloatMemRead              0      0.00%    100.00% # Type of FU issued
system.cpu1.iq.FU_type_0::FloatMemWrite            12      0.00%    100.00% # Type of FU issued
system.cpu1.iq.FU_type_0::IprAccess                 0      0.00%    100.00% # Type of FU issued
system.cpu1.iq.FU_type_0::InstPrefetch              0      0.00%    100.00% # Type of FU issued
system.cpu1.iq.FU_type_0::total             135555483                       # Type of FU issued
system.cpu1.iq.fp_alu_accesses                     16                       # Number of floating point alu accesses
system.cpu1.iq.fp_inst_queue_reads                 28                       # Number of floating instruction queue reads
system.cpu1.iq.fp_inst_queue_wakeup_accesses           12                       # Number of floating instruction queue wakeup accesses
system.cpu1.iq.fp_inst_queue_writes                12                       # Number of floating instruction queue writes
system.cpu1.iq.fu_busy_cnt                    2762177                       # FU busy when requested
system.cpu1.iq.fu_busy_rate                  0.020377                       # FU busy rate (busy events/executed inst)
system.cpu1.iq.fu_full::No_OpClass                  0      0.00%      0.00% # attempts to use FU when none available
system.cpu1.iq.fu_full::IntAlu                 484174     17.53%     17.53% # attempts to use FU when none available
system.cpu1.iq.fu_full::IntMult                     0      0.00%     17.53% # attempts to use FU when none available
system.cpu1.iq.fu_full::IntDiv                      0      0.00%     17.53% # attempts to use FU when none available
system.cpu1.iq.fu_full::FloatAdd                    0      0.00%     17.53% # attempts to use FU when none available
system.cpu1.iq.fu_full::FloatCmp                    0      0.00%     17.53% # attempts to use FU when none available
system.cpu1.iq.fu_full::FloatCvt                    0      0.00%     17.53% # attempts to use FU when none available
system.cpu1.iq.fu_full::FloatMult                   0      0.00%     17.53% # attempts to use FU when none available
system.cpu1.iq.fu_full::FloatMultAcc                0      0.00%     17.53% # attempts to use FU when none available
system.cpu1.iq.fu_full::FloatDiv                    0      0.00%     17.53% # attempts to use FU when none available
system.cpu1.iq.fu_full::FloatMisc                   0      0.00%     17.53% # attempts to use FU when none available
system.cpu1.iq.fu_full::FloatSqrt                   0      0.00%     17.53% # attempts to use FU when none available
system.cpu1.iq.fu_full::SimdAdd                     0      0.00%     17.53% # attempts to use FU when none available
system.cpu1.iq.fu_full::SimdAddAcc                  0      0.00%     17.53% # attempts to use FU when none available
system.cpu1.iq.fu_full::SimdAlu                     0      0.00%     17.53% # attempts to use FU when none available
system.cpu1.iq.fu_full::SimdCmp                     0      0.00%     17.53% # attempts to use FU when none available
system.cpu1.iq.fu_full::SimdCvt                     0      0.00%     17.53% # attempts to use FU when none available
system.cpu1.iq.fu_full::SimdMisc                    0      0.00%     17.53% # attempts to use FU when none available
system.cpu1.iq.fu_full::SimdMult                    0      0.00%     17.53% # attempts to use FU when none available
system.cpu1.iq.fu_full::SimdMultAcc                 0      0.00%     17.53% # attempts to use FU when none available
system.cpu1.iq.fu_full::SimdShift                   0      0.00%     17.53% # attempts to use FU when none available
system.cpu1.iq.fu_full::SimdShiftAcc                0      0.00%     17.53% # attempts to use FU when none available
system.cpu1.iq.fu_full::SimdDiv                     0      0.00%     17.53% # attempts to use FU when none available
system.cpu1.iq.fu_full::SimdSqrt                    0      0.00%     17.53% # attempts to use FU when none available
system.cpu1.iq.fu_full::SimdFloatAdd                0      0.00%     17.53% # attempts to use FU when none available
system.cpu1.iq.fu_full::SimdFloatAlu                0      0.00%     17.53% # attempts to use FU when none available
system.cpu1.iq.fu_full::SimdFloatCmp                0      0.00%     17.53% # attempts to use FU when none available
system.cpu1.iq.fu_full::SimdFloatCvt                0      0.00%     17.53% # attempts to use FU when none available
system.cpu1.iq.fu_full::SimdFloatDiv                0      0.00%     17.53% # attempts to use FU when none available
system.cpu1.iq.fu_full::SimdFloatMisc               0      0.00%     17.53% # attempts to use FU when none available
system.cpu1.iq.fu_full::SimdFloatMult               0      0.00%     17.53% # attempts to use FU when none available
system.cpu1.iq.fu_full::SimdFloatMultAcc            0      0.00%     17.53% # attempts to use FU when none available
system.cpu1.iq.fu_full::SimdFloatSqrt               0      0.00%     17.53% # attempts to use FU when none available
system.cpu1.iq.fu_full::SimdReduceAdd               0      0.00%     17.53% # attempts to use FU when none available
system.cpu1.iq.fu_full::SimdReduceAlu               0      0.00%     17.53% # attempts to use FU when none available
system.cpu1.iq.fu_full::SimdReduceCmp               0      0.00%     17.53% # attempts to use FU when none available
system.cpu1.iq.fu_full::SimdFloatReduceAdd            0      0.00%     17.53% # attempts to use FU when none available
system.cpu1.iq.fu_full::SimdFloatReduceCmp            0      0.00%     17.53% # attempts to use FU when none available
system.cpu1.iq.fu_full::SimdAes                     0      0.00%     17.53% # attempts to use FU when none available
system.cpu1.iq.fu_full::SimdAesMix                  0      0.00%     17.53% # attempts to use FU when none available
system.cpu1.iq.fu_full::SimdSha1Hash                0      0.00%     17.53% # attempts to use FU when none available
system.cpu1.iq.fu_full::SimdSha1Hash2               0      0.00%     17.53% # attempts to use FU when none available
system.cpu1.iq.fu_full::SimdSha256Hash              0      0.00%     17.53% # attempts to use FU when none available
system.cpu1.iq.fu_full::SimdSha256Hash2             0      0.00%     17.53% # attempts to use FU when none available
system.cpu1.iq.fu_full::SimdShaSigma2               0      0.00%     17.53% # attempts to use FU when none available
system.cpu1.iq.fu_full::SimdShaSigma3               0      0.00%     17.53% # attempts to use FU when none available
system.cpu1.iq.fu_full::SimdPredAlu                 0      0.00%     17.53% # attempts to use FU when none available
system.cpu1.iq.fu_full::MemRead               1847919     66.90%     84.43% # attempts to use FU when none available
system.cpu1.iq.fu_full::MemWrite               430080     15.57%    100.00% # attempts to use FU when none available
[...]
system.cpu1.dcache.WriteReq_hits::total       1992424                       # number of WriteReq hits
system.cpu1.dcache.WriteReq_misses::.cpu1.data      2196066                       # number of WriteReq misses
system.cpu1.dcache.WriteReq_misses::total      2196066                       # number of WriteReq misses
system.cpu1.dcache.WriteReq_miss_latency::.cpu1.data 214148499136                       # number of WriteReq miss cycles
system.cpu1.dcache.WriteReq_miss_latency::total 214148499136                       # number of WriteReq miss cycles
system.cpu1.dcache.WriteReq_accesses::.cpu1.data      4188490                       # number of WriteReq accesses(hits+misses)
system.cpu1.dcache.WriteReq_accesses::total      4188490                       # number of WriteReq accesses(hits+misses)
system.cpu1.dcache.WriteReq_miss_rate::.cpu1.data     0.524310                       # miss rate for WriteReq accesses
system.cpu1.dcache.WriteReq_miss_rate::total     0.524310                       # miss rate for WriteReq accesses
system.cpu1.dcache.WriteReq_avg_miss_latency::.cpu1.data 97514.600716                       # average WriteReq miss latency
system.cpu1.dcache.WriteReq_avg_miss_latency::total 97514.600716                       # average WriteReq miss latency
system.cpu1.dcache.WriteReq_mshr_hits::.cpu1.data      1974940                       # number of WriteReq MSHR hits
system.cpu1.dcache.WriteReq_mshr_hits::total      1974940                       # number of WriteReq MSHR hits
system.cpu1.dcache.WriteReq_mshr_misses::.cpu1.data       221126                       # number of WriteReq MSHR misses
system.cpu1.dcache.WriteReq_mshr_misses::total       221126                       # number of WriteReq MSHR misses
system.cpu1.dcache.WriteReq_mshr_miss_latency::.cpu1.data  23269159423                       # number of WriteReq MSHR miss cycles
system.cpu1.dcache.WriteReq_mshr_miss_latency::total  23269159423                       # number of WriteReq MSHR miss cycles
system.cpu1.dcache.WriteReq_mshr_miss_rate::.cpu1.data     0.052794                       # mshr miss rate for WriteReq accesses
system.cpu1.dcache.WriteReq_mshr_miss_rate::total     0.052794                       # mshr miss rate for WriteReq accesses
system.cpu1.dcache.WriteReq_avg_mshr_miss_latency::.cpu1.data 105230.318565                       # average WriteReq mshr miss latency
system.cpu1.dcache.WriteReq_avg_mshr_miss_latency::total 105230.318565                       # average WriteReq mshr miss latency
system.cpu1.dcache.LoadLockedReq_hits::.cpu1.data        35034                       # number of LoadLockedReq hits
system.cpu1.dcache.LoadLockedReq_hits::total        35034                       # number of LoadLockedReq hits
system.cpu1.dcache.LoadLockedReq_misses::.cpu1.data          415                       # number of LoadLockedReq misses
system.cpu1.dcache.LoadLockedReq_misses::total          415                       # number of LoadLockedReq misses
system.cpu1.dcache.LoadLockedReq_miss_latency::.cpu1.data     26872500                       # number of LoadLockedReq miss cycles
system.cpu1.dcache.LoadLockedReq_miss_latency::total     26872500                       # number of LoadLockedReq miss cycles
system.cpu1.dcache.LoadLockedReq_accesses::.cpu1.data        35449                       # number of LoadLockedReq accesses(hits+misses)
system.cpu1.dcache.LoadLockedReq_accesses::total        35449                       # number of LoadLockedReq accesses(hits+misses)
system.cpu1.dcache.LoadLockedReq_miss_rate::.cpu1.data     0.011707                       # miss rate for LoadLockedReq accesses
system.cpu1.dcache.LoadLockedReq_miss_rate::total     0.011707                       # miss rate for LoadLockedReq accesses
system.cpu1.dcache.LoadLockedReq_avg_miss_latency::.cpu1.data 64753.012048                       # average LoadLockedReq miss latency
system.cpu1.dcache.LoadLockedReq_avg_miss_latency::total 64753.012048                       # average LoadLockedReq miss latency
system.cpu1.dcache.LoadLockedReq_mshr_hits::.cpu1.data          187                       # number of LoadLockedReq MSHR hits
system.cpu1.dcache.LoadLockedReq_mshr_hits::total          187                       # number of LoadLockedReq MSHR hits
system.cpu1.dcache.LoadLockedReq_mshr_misses::.cpu1.data          228                       # number of LoadLockedReq MSHR misses
system.cpu1.dcache.LoadLockedReq_mshr_misses::total          228                       # number of LoadLockedReq MSHR misses
system.cpu1.dcache.LoadLockedReq_mshr_miss_latency::.cpu1.data     13175500                       # number of LoadLockedReq MSHR miss cycles
system.cpu1.dcache.LoadLockedReq_mshr_miss_latency::total     13175500                       # number of LoadLockedReq MSHR miss cycles
system.cpu1.dcache.LoadLockedReq_mshr_miss_rate::.cpu1.data     0.006432                       # mshr miss rate for LoadLockedReq accesses
system.cpu1.dcache.LoadLockedReq_mshr_miss_rate::total     0.006432                       # mshr miss rate for LoadLockedReq accesses
system.cpu1.dcache.LoadLockedReq_avg_mshr_miss_latency::.cpu1.data 57787.280702                       # average LoadLockedReq mshr miss latency
system.cpu1.dcache.LoadLockedReq_avg_mshr_miss_latency::total 57787.280702                       # average LoadLockedReq mshr miss latency
system.cpu1.dcache.StoreCondReq_hits::.cpu1.data        34679                       # number of StoreCondReq hits
system.cpu1.dcache.StoreCondReq_hits::total        34679                       # number of StoreCondReq hits
system.cpu1.dcache.StoreCondReq_misses::.cpu1.data          630                       # number of StoreCondReq misses
system.cpu1.dcache.StoreCondReq_misses::total          630                       # number of StoreCondReq misses
system.cpu1.dcache.StoreCondReq_miss_latency::.cpu1.data      4533500                       # number of StoreCondReq miss cycles
system.cpu1.dcache.StoreCondReq_miss_latency::total      4533500                       # number of StoreCondReq miss cycles
system.cpu1.dcache.StoreCondReq_accesses::.cpu1.data        35309                       # number of StoreCondReq accesses(hits+misses)
system.cpu1.dcache.StoreCondReq_accesses::total        35309                       # number of StoreCondReq accesses(hits+misses)
system.cpu1.dcache.StoreCondReq_miss_rate::.cpu1.data     0.017842                       # miss rate for StoreCondReq accesses
system.cpu1.dcache.StoreCondReq_miss_rate::total     0.017842                       # miss rate for StoreCondReq accesses
system.cpu1.dcache.StoreCondReq_avg_miss_latency::.cpu1.data  7196.031746                       # average StoreCondReq miss latency
system.cpu1.dcache.StoreCondReq_avg_miss_latency::total  7196.031746                       # average StoreCondReq miss latency
system.cpu1.dcache.StoreCondReq_mshr_misses::.cpu1.data          630                       # number of StoreCondReq MSHR misses
system.cpu1.dcache.StoreCondReq_mshr_misses::total          630                       # number of StoreCondReq MSHR misses
system.cpu1.dcache.StoreCondReq_mshr_miss_latency::.cpu1.data      3904500                       # number of StoreCondReq MSHR miss cycles
system.cpu1.dcache.StoreCondReq_mshr_miss_latency::total      3904500                       # number of StoreCondReq MSHR miss cycles
system.cpu1.dcache.StoreCondReq_mshr_miss_rate::.cpu1.data     0.017842                       # mshr miss rate for StoreCondReq accesses
system.cpu1.dcache.StoreCondReq_mshr_miss_rate::total     0.017842                       # mshr miss rate for StoreCondReq accesses
system.cpu1.dcache.StoreCondReq_avg_mshr_miss_latency::.cpu1.data  6197.619048                       # average StoreCondReq mshr miss latency
system.cpu1.dcache.StoreCondReq_avg_mshr_miss_latency::total  6197.619048                       # average StoreCondReq mshr miss latency
system.cpu1.dcache.StoreCondFailReq_miss_latency::.cpu1.data        33500                       # number of StoreCondFailReq miss cycles
system.cpu1.dcache.StoreCondFailReq_miss_latency::total        33500                       # number of StoreCondFailReq miss cycles
system.cpu1.dcache.StoreCondFailReq_avg_miss_latency::.cpu1.data          inf                       # average StoreCondFailReq miss latency
system.cpu1.dcache.StoreCondFailReq_avg_miss_latency::total          inf                       # average StoreCondFailReq miss latency
system.cpu1.dcache.StoreCondFailReq_mshr_miss_latency::.cpu1.data        32500                       # number of StoreCondFailReq MSHR miss cycles
system.cpu1.dcache.StoreCondFailReq_mshr_miss_latency::total        32500                       # number of StoreCondFailReq MSHR miss cycles
system.cpu1.dcache.StoreCondFailReq_avg_mshr_miss_latency::.cpu1.data          inf                       # average StoreCondFailReq mshr miss latency
system.cpu1.dcache.StoreCondFailReq_avg_mshr_miss_latency::total          inf                       # average StoreCondFailReq mshr miss latency
system.cpu1.dcache.SwapReq_hits::.cpu1.data          929                       # number of SwapReq hits
system.cpu1.dcache.SwapReq_hits::total            929                       # number of SwapReq hits
system.cpu1.dcache.SwapReq_misses::.cpu1.data          641                       # number of SwapReq misses
system.cpu1.dcache.SwapReq_misses::total          641                       # number of SwapReq misses
system.cpu1.dcache.SwapReq_miss_latency::.cpu1.data      6669500                       # number of SwapReq miss cycles
system.cpu1.dcache.SwapReq_miss_latency::total      6669500                       # number of SwapReq miss cycles
system.cpu1.dcache.SwapReq_accesses::.cpu1.data         1570                       # number of SwapReq accesses(hits+misses)
system.cpu1.dcache.SwapReq_accesses::total         1570                       # number of SwapReq accesses(hits+misses)
system.cpu1.dcache.SwapReq_miss_rate::.cpu1.data     0.408280                       # miss rate for SwapReq accesses
system.cpu1.dcache.SwapReq_miss_rate::total     0.408280                       # miss rate for SwapReq accesses
system.cpu1.dcache.SwapReq_avg_miss_latency::.cpu1.data 10404.836193                       # average SwapReq miss latency
system.cpu1.dcache.SwapReq_avg_miss_latency::total 10404.836193                       # average SwapReq miss latency
system.cpu1.dcache.SwapReq_mshr_misses::.cpu1.data          641                       # number of SwapReq MSHR misses
system.cpu1.dcache.SwapReq_mshr_misses::total          641                       # number of SwapReq MSHR misses
system.cpu1.dcache.SwapReq_mshr_miss_latency::.cpu1.data      6028500                       # number of SwapReq MSHR miss cycles
system.cpu1.dcache.SwapReq_mshr_miss_latency::total      6028500                       # number of SwapReq MSHR miss cycles
system.cpu1.dcache.SwapReq_mshr_miss_rate::.cpu1.data     0.408280                       # mshr miss rate for SwapReq accesses
system.cpu1.dcache.SwapReq_mshr_miss_rate::total     0.408280                       # mshr miss rate for SwapReq accesses
system.cpu1.dcache.SwapReq_avg_mshr_miss_latency::.cpu1.data  9404.836193                       # average SwapReq mshr miss latency
system.cpu1.dcache.SwapReq_avg_mshr_miss_latency::total  9404.836193                       # average SwapReq mshr miss latency
system.cpu1.dcache.tags.pwrStateResidencyTicks::UNDEFINED  80794538500                       # Cumulative time (in ticks) in various power states
system.cpu1.dcache.tags.tagsinuse           31.781704                       # Cycle average of tags in use
system.cpu1.dcache.tags.total_refs           14679735                       # Total number of references to valid blocks.
system.cpu1.dcache.tags.sampled_refs           995646                       # Sample count of references to valid blocks.
system.cpu1.dcache.tags.avg_refs            14.743930                       # Average number of references to valid blocks.
system.cpu1.dcache.tags.warmup_cycle                0                       # Cycle when the warmup percentage was hit.
system.cpu1.dcache.tags.occ_blocks::.cpu1.data    31.781704                       # Average occupied blocks per requestor
system.cpu1.dcache.tags.occ_percent::.cpu1.data     0.993178                       # Average percentage of cache occupancy
system.cpu1.dcache.tags.occ_percent::total     0.993178                       # Average percentage of cache occupancy
system.cpu1.dcache.tags.occ_task_id_blocks::1024           28                       # Occupied blocks per task id
system.cpu1.dcache.tags.age_task_id_blocks_1024::1            3                       # Occupied blocks per task id
system.cpu1.dcache.tags.age_task_id_blocks_1024::2           25                       # Occupied blocks per task id
system.cpu1.dcache.tags.occ_task_id_percent::1024     0.875000                       # Percentage of cache occupancy per task id
system.cpu1.dcache.tags.tag_accesses         46417173                       # Number of tag accesses
system.cpu1.dcache.tags.data_accesses        46417173                       # Number of data accesses
system.cpu_clk_domain.clock                       500                       # Clock period in ticks
system.tol2bus.pwrStateResidencyTicks::UNDEFINED  80794538500                       # Cumulative time (in ticks) in various power states
system.tol2bus.trans_dist::ReadResp           1650100                       # Transaction distribution
system.tol2bus.trans_dist::WritebackDirty      1860405                       # Transaction distribution
system.tol2bus.trans_dist::WritebackClean      1189175                       # Transaction distribution
system.tol2bus.trans_dist::CleanEvict         8572321                       # Transaction distribution
system.tol2bus.trans_dist::HardPFReq         11579440                       # Transaction distribution
system.tol2bus.trans_dist::HardPFResp               3                       # Transaction distribution
system.tol2bus.trans_dist::UpgradeReq            1888                       # Transaction distribution
system.tol2bus.trans_dist::SCUpgradeReq          1512                       # Transaction distribution
system.tol2bus.trans_dist::UpgradeResp           3400                       # Transaction distribution
system.tol2bus.trans_dist::SCUpgradeFailReq            1                       # Transaction distribution
system.tol2bus.trans_dist::UpgradeFailResp            1                       # Transaction distribution
system.tol2bus.trans_dist::ReadExReq           473630                       # Transaction distribution
system.tol2bus.trans_dist::ReadExResp          473630                       # Transaction distribution
system.tol2bus.trans_dist::ReadCleanReq         86368                       # Transaction distribution
system.tol2bus.trans_dist::ReadSharedReq      1563731                       # Transaction distribution
system.tol2bus.trans_dist::InvalidateReq         3253                       # Transaction distribution
system.tol2bus.trans_dist::InvalidateResp         3253                       # Transaction distribution
system.tol2bus.pkt_count_system.cpu0.icache.mem_side::system.l2.cpu_side       214361                       # Packet count per connected master and slave (bytes)
system.tol2bus.pkt_count_system.cpu0.dcache.mem_side::system.l2.cpu_side      3133429                       # Packet count per connected master and slave (bytes)
system.tol2bus.pkt_count_system.cpu1.icache.mem_side::system.l2.cpu_side        44745                       # Packet count per connected master and slave (bytes)
system.tol2bus.pkt_count_system.cpu1.dcache.mem_side::system.l2.cpu_side      2984356                       # Packet count per connected master and slave (bytes)
system.tol2bus.pkt_count::total               6376891                       # Packet count per connected master and slave (bytes)
system.tol2bus.pkt_size_system.cpu0.icache.mem_side::system.l2.cpu_side      9146112                       # Cumulative packet size per connected master and slave (bytes)
system.tol2bus.pkt_size_system.cpu0.dcache.mem_side::system.l2.cpu_side    133308992                       # Cumulative packet size per connected master and slave (bytes)
system.tol2bus.pkt_size_system.cpu1.icache.mem_side::system.l2.cpu_side      1909120                       # Cumulative packet size per connected master and slave (bytes)
system.tol2bus.pkt_size_system.cpu1.dcache.mem_side::system.l2.cpu_side    127157312                       # Cumulative packet size per connected master and slave (bytes)
system.tol2bus.pkt_size::total              271521536                       # Cumulative packet size per connected master and slave (bytes)
system.tol2bus.snoops                        21085223                       # Total snoops (count)
system.tol2bus.snoopTraffic                  59570752                       # Total snoop traffic (bytes)
system.tol2bus.snoop_fanout::samples         23214326                       # Request fanout histogram
system.tol2bus.snoop_fanout::mean            0.077222                       # Request fanout histogram
system.tol2bus.snoop_fanout::stdev           0.271401                       # Request fanout histogram
system.tol2bus.snoop_fanout::underflows             0      0.00%      0.00% # Request fanout histogram
system.tol2bus.snoop_fanout::0               21449522     92.40%     92.40% # Request fanout histogram
system.tol2bus.snoop_fanout::1                1736952      7.48%     99.88% # Request fanout histogram
system.tol2bus.snoop_fanout::2                  27852      0.12%    100.00% # Request fanout histogram
system.tol2bus.snoop_fanout::3                      0      0.00%    100.00% # Request fanout histogram
system.tol2bus.snoop_fanout::4                      0      0.00%    100.00% # Request fanout histogram
system.tol2bus.snoop_fanout::5                      0      0.00%    100.00% # Request fanout histogram
system.tol2bus.snoop_fanout::6                      0      0.00%    100.00% # Request fanout histogram
system.tol2bus.snoop_fanout::7                      0      0.00%    100.00% # Request fanout histogram
system.tol2bus.snoop_fanout::8                      0      0.00%    100.00% # Request fanout histogram
system.tol2bus.snoop_fanout::overflows              0      0.00%    100.00% # Request fanout histogram
system.tol2bus.snoop_fanout::min_value              0                       # Request fanout histogram
system.tol2bus.snoop_fanout::max_value              2                       # Request fanout histogram
system.tol2bus.snoop_fanout::total           23214326                       # Request fanout histogram
system.tol2bus.reqLayer0.occupancy         4255995125                       # Layer occupancy (ticks)
system.tol2bus.reqLayer0.utilization              5.3                       # Layer utilization (%)
system.tol2bus.respLayer1.occupancy        1565986708                       # Layer occupancy (ticks)
system.tol2bus.respLayer1.utilization             1.9                       # Layer utilization (%)
system.tol2bus.respLayer0.occupancy         107247866                       # Layer occupancy (ticks)
system.tol2bus.respLayer0.utilization             0.1                       # Layer utilization (%)
system.tol2bus.respLayer3.occupancy        1494556942                       # Layer occupancy (ticks)
system.tol2bus.respLayer3.utilization             1.8                       # Layer utilization (%)
system.tol2bus.respLayer2.occupancy          22473797                       # Layer occupancy (ticks)
system.tol2bus.respLayer2.utilization             0.0                       # Layer utilization (%)
system.tol2bus.snoopLayer0.occupancy             4503                       # Layer occupancy (ticks)
system.tol2bus.snoopLayer0.utilization            0.0                       # Layer utilization (%)

---------- End Simulation Statistics   ----------
