Redirecting stdout to /vol1/msoyturk/gem5/results/sssp/dblp.el/prefetch_SignaturePathPrefetcher_SecondChanceRP/output.txt
Redirecting stderr to /vol1/msoyturk/gem5/results/sssp/dblp.el/prefetch_SignaturePathPrefetcher_SecondChanceRP/error.txt
gem5 Simulator System.  http://gem5.org
gem5 is copyrighted software; use the --copyright option for details.

gem5 compiled Apr 26 2020 13:32:47
gem5 started Apr 26 2020 14:11:05
gem5 executing on draco, pid 3054
command line: /vol1/msoyturk/gem5/build/RISCV/gem5.fast -re --outdir=/vol1/msoyturk/gem5/results/sssp/dblp.el/prefetch_SignaturePathPrefetcher_SecondChanceRP --stdout-file=output.txt --stderr-file=error.txt /vol1/msoyturk/gem5/configs/example/my_se.py -c /vol1/msoyturk/gem5/gapbs/sssp -o '-f /vol1/msoyturk/gem5/gapbs/test/graphs/dblp.el' --caches --l1d_size=2kB --l1i_size=2kB --cpu-type=DerivO3CPU -n 4 --mem-size=512MB --l2cache --l2_size=4kB --l2-hwp-type=SignaturePathPrefetcher --l2-replacement-policy=SecondChanceRP --l1i_mshrs=4 --l1d_mshrs=4 --l2_mshrs=20 --l1i_write_buffers=8 --l1d_write_buffers=8 --l2_write_buffers=8

info: Standard input is not a terminal, disabling listeners.
Warning: l2-hwp-type is set ( SignaturePathPrefetcher ), but the current l2 has a default Hardware Prefetcher of type <class 'm5.params.NullSimObject'> , using the specified by the flag option.
Global frequency set at 1000000000000 ticks per second
**** REAL SIMULATION ****
Read Time:           1.10802
Build Time:          0.23413
Graph has 425957 nodes and 1049866 directed edges for degree: 2
    0          1     0.02534
   36          1     0.00563
  114          2     0.04216
  118          1     0.00493
  120          1     0.00543
  139          1     0.01108
  143          1     0.02261
  147          1     0.01909
  150          2     0.00576
  154          1     0.01178
  156          2     0.01097
  160          1     0.00811
  166          1     0.00541
  168          1     0.00575
  176          1     0.02221
  181          1     0.00525
  182          1     0.00535
  183          1     0.01016
  184          1     0.00558
  186          1     0.00583
  187          1     0.00611
  189          1     0.00516
  191          1     0.01494
  195          1     0.00578
  204          1     0.00871
  208          1     0.00618
  211          3     0.01002
  212          1     0.00843
  214          1     0.00573
  220          1     0.00558
  221          1     0.02016
  222          1     0.00555
  223          1     0.00506
  225          2     0.01586
  227          1     0.01317
  228          1     0.00785
  229          1     0.00506
  230          5     0.00593
  234          1     0.01057
  238          2     0.00529
  239          2     0.01015
  243          1     0.00532
  245          1     0.00735
  247          1     0.00460
  248          2     0.00549
  252          2     0.02008
  254          2     0.00538
  256          4     0.01780
  260          1     0.00734
  262          3     0.00580
  265          3     0.00577
  267          2     0.00902
  268          2     0.00921
  270          2     0.00873
  271          3     0.00507
  272          1     0.00498
  274          3     0.01081
  275          1     0.00523
  276          1     0.00559
  277          1     0.01451
  279          2     0.00644
  280          1     0.00471
  282          1     0.00515
  283          2     0.00915
  284          2     0.00534
  286          1     0.00545
  289          2     0.00565
  291          1     0.00919
  292          2     0.00548
  293          1     0.00510
  294          2     0.00577
  295          2     0.00503
  298          1     0.00553
  299          1     0.00502
  300          1     0.00545
  301          1     0.01637
  302          3     0.00642
  303          2     0.01786
  304          2     0.01461
  305          1     0.00959
  307          1     0.00999
  310          1     0.00573
  311          3     0.01197
  312          1     0.00452
  313          1     0.00535
  314          1     0.00903
  316          2     0.01268
  317          4     0.01079
  318          3     0.00948
  320          1     0.00462
  321          1     0.00546
  323          2     0.01641
  324          1     0.00533
  325          1     0.00522
  326          1     0.00528
  327          3     0.00907
  328          1     0.00565
  329          2     0.00604
  332          3     0.01222
  333          2     0.02249
  334          3     0.02056
  335          3     0.01131
  338          4     0.00882
  341          4     0.01335
  343          3     0.01226
  344          2     0.01074
  345          2     0.01341
  346          1     0.00506
  347          2     0.00898
  349          5     0.01724
  350          1     0.00752
  352          2     0.01258
  353          2     0.00810
  354          2     0.00560
  355          2     0.01126
  356          3     0.01209
  357          3     0.01035
  358          2     0.00947
  359          1     0.00886
  360          3     0.00566
  362          3     0.00498
  363          1     0.00467
  364          2     0.00741
  365          1     0.00482
  366          3     0.00755
  368          3     0.00555
  369          1     0.00432
  370          1     0.00853
  371          5     0.01048
  372          2     0.00798
  373          1     0.00633
  375          1     0.00583
  376          3     0.01314
  377          1     0.00513
  378          1     0.00485
  379          4     0.00506
  380          2     0.00921
  381          2     0.00501
  382          2     0.02341
  383          1     0.01575
  385          4     0.01076
  386          2     0.00695
  387          2     0.01951
  388          2     0.00858
  389          4     0.00885
  390          1     0.01265
  391          4     0.01013
  393          2     0.00547
  394          1     0.00516
  396          2     0.00569
  397          1     0.00722
  398          3     0.00604
  399          4     0.00532
  400          3     0.00528
  401          3     0.00519
  402          1     0.00903
  403          3     0.01266
  404          1     0.00484
  405          3     0.01075
  406          1     0.01324
  407          2     0.00573
  409          5     0.01072
  410          2     0.00536
  411          1     0.00494
  413          2     0.00527
  414          1     0.00498
  415          1     0.01120
  417          3     0.00486
  418          3     0.00850
  419          1     0.00519
  420          2     0.00944
  421          2     0.00745
  422          1     0.00514
  423          2     0.01214
  424          1     0.01019
  425          1     0.00513
  426          1     0.00495
  427          2     0.00579
  428          2     0.01433
  429          3     0.00590
  430          2     0.00546
  431          2     0.00868
  432          1     0.00519
  433          3     0.00904
  434          2     0.00877
  435          2     0.01235
  436          1     0.00968
  437          3     0.00529
  438          3     0.00622
  439          1     0.00571
  441          3     0.00591
  443          1     0.00540
  444          2     0.00587
  445          1     0.01019
  446          4     0.01002
  447          3     0.01029
  448          4     0.00558
  449          2     0.00539
  450          3     0.00963
  451          1     0.00578
  452          2     0.01272
  453          3     0.01045
  454          1     0.01394
  456          3     0.00582
  457          2     0.01622
  458          2     0.00513
  459          1     0.00525
  461          1     0.00914
  462          4     0.01151
  463          3     0.01636
  464          2     0.00507
  465          2     0.00551
  466          3     0.00536
  467          4     0.01782
  468          5     0.01012
  469          2     0.00494
  470          2     0.00585
  471          3     0.01007
  472          3     0.00587
  473          3     0.00798
  474          3     0.00976
  475          5     0.00871
  476          4     0.00823
  477          2     0.00527
  478          2     0.00572
  479          3     0.00840
  480          2     0.00589
  481          2     0.00823
  482          2     0.00554
  483          1     0.00534
  484          1     0.00526
  485          2     0.00771
  486          1     0.01311
  487          5     0.00901
  489          1     0.01077
  490          3     0.00512
  491          4     0.00583
  492          1     0.00775
  493          3     0.01353
  496          2     0.00466
  497          3     0.01182
  498          4     0.03131
  499          2     0.00558
  501          2     0.00747
  502          4     0.00577
  503          1     0.00514
  505          5     0.00542
  506          2     0.00908
  507          3     0.00898
  508          3     0.00619
  509          1     0.00556
  510          2     0.01750
  511          5     0.02168
  512          1     0.01182
  513          3     0.00578
  514          2     0.00542
  515          4     0.00967
  516          2     0.01098
  517          2     0.01355
  518          3     0.02260
  519          3     0.01188
  520          1     0.00886
  521          2     0.00532
  522          3     0.00519
  523          1     0.00536
  527          4     0.01225
  528          4     0.00864
  529          2     0.00523
  530          3     0.00738
  531          5     0.01779
  532          1     0.00843
  533          4     0.01066
  534          1     0.00498
  535          4     0.00541
  537          2     0.00912
  538          1     0.00544
  539          4     0.00594
  540          1     0.00503
  541          4     0.01166
  542          2     0.00568
  543         10     0.01210
  544          3     0.03189
  545          2     0.00541
  546          2     0.00709
  547          3     0.02606
  548          3     0.00582
  549          3     0.01011
  550          4     0.01189
  551          2     0.01090
  552          2     0.00532
  553          1     0.00544
  555          2     0.00483
  556          4     0.00519
  557          1     0.01148
  558          2     0.00555
  559          4     0.01164
  560          2     0.00530
  561          1     0.01114
  562          6     0.00535
  563          1     0.00501
  564          2     0.01044
  565          1     0.00521
  566          5     0.01158
  567          4     0.00579
  568          2     0.01202
  569          3     0.00879
  570          1     0.00527
  571          2     0.00505
  572          3     0.00557
  573          2     0.00453
  574          2     0.00537
  575          1     0.00460
  576          6     0.00616
  577          2     0.00538
  578          1     0.00492
  579          1     0.00542
  581          6     0.00894
  582          2     0.00590
  583          1     0.00484
  584          3     0.01741
  585          1     0.00507
  586          6     0.00961
  587          5     0.00841
  588          3     0.00937
  589          3     0.00554
  590          2     0.01451
  591          4     0.00884
  592          6     0.01449
  594          4     0.00554
  595          1     0.00573
  597          2     0.00511
  598          2     0.00522
  599          3     0.00542
  600          1     0.00494
  601          1     0.00519
  602          1     0.00501
  603          2     0.00903
  604          3     0.00733
  605          5     0.00713
  606          3     0.01449
  607          2     0.00529
  608          3     0.00507
  609          2     0.00792
  610          2     0.00536
  611          2     0.00865
  612          1     0.01122
  614          1     0.00892
  615          3     0.00540
  616          4     0.00573
  617          2     0.01096
  618          3     0.01286
  619          5     0.00577
  622          3     0.00898
  623          5     0.00966
  624          3     0.01177
  625          2     0.00533
  626          3     0.00944
  627          4     0.01918
  628          3     0.00878
  630          4     0.00742
  631          1     0.00564
  632          1     0.00490
  633          4     0.02014
  634          1     0.01245
  635          1     0.00545
  636          1     0.00779
  637          4     0.01590
  638          1     0.00520
  640          4     0.01713
  641          3     0.01071
  642          1     0.00736
  643          2     0.01623
  644          3     0.00611
  645          1     0.00526
  646          1     0.00517
  647          3     0.00626
  648          1     0.00621
  649          1     0.00576
  650          2     0.00553
  652          4     0.01914
  653          4     0.00519
  655          3     0.01043
  656          1     0.00955
  657          1     0.00544
  658          1     0.00600
  660          1     0.00549
  661          1     0.00544
  662          2     0.00554
  663          3     0.01079
  664          3     0.00558
  665          4     0.01376
  666          2     0.00610
  667          3     0.00532
  668          1     0.01350
  669          1     0.01402
  670          1     0.00560
  671          3     0.00814
  672          2     0.00527
  674          1     0.00521
  675          2     0.00571
  677          1     0.00955
  678          3     0.01095
  679          3     0.00509
  680          4     0.00771
  681          4     0.00587
  682          7     0.01176
  683          2     0.00724
  684          1     0.00530
  685          4     0.02080
  686          4     0.01535
  687          4     0.00820
  688          3     0.01205
  690          4     0.00632
  691          1     0.00508
  692          3     0.02997
  693          2     0.00501
  694          3     0.00850
  695          3     0.02457
  696          1     0.00926
  697          6     0.01211
  698          1     0.01063
  699          7     0.01380
  700          2     0.00561
  701          3     0.01120
  702          1     0.00482
  703          3     0.00849
  704          1     0.02117
  705          3     0.01278
  706          2     0.00718
  707          3     0.00828
  708          5     0.01279
  710          6     0.00900
  711          6     0.01000
  712          3     0.01009
  713          3     0.01047
  714          6     0.01902
  715          2     0.00690
  716          1     0.00542
  717          1     0.02572
  718          2     0.01661
  719          4     0.01154
  720          1     0.01285
  721          6     0.01126
  722          3     0.02132
  723          5     0.00848
  724          3     0.00888
  725          6     0.01084
  726          1     0.00865
  727          5     0.00592
  728          3     0.00554
  729          6     0.01809
  730          4     0.01855
  731          3     0.00961
  732          3     0.00791
  733          1     0.00586
  734          5     0.01828
  735          3     0.00566
  736          2     0.00537
  737          4     0.00866
  738          2     0.00531
  739          3     0.01088
  740          2     0.01275
  741          4     0.00613
  742          4     0.00789
  743          4     0.01202
  744          5     0.00949
  745          3     0.00941
  746          3     0.00781
  747          4     0.00654
  748          3     0.00540
  749          1     0.00530
  750          6     0.00649
  751          5     0.01495
  752          5     0.01612
  753          2     0.00494
  754          3     0.00513
  755          5     0.00897
  756          5     0.01215
  757          5     0.01170
  758          1     0.00831
  759          2     0.01402
  760          7     0.01865
  761          4     0.01869
  762          4     0.00608
  763          3     0.00825
  764          4     0.00685
  765          4     0.01716
  766          2     0.00518
  767          2     0.00576
  768          3     0.01077
  769          2     0.01097
  770          4     0.01067
  771          3     0.00979
  772          3     0.02083
  773          2     0.00477
  774          4     0.01048
  775          2     0.00510
  776          2     0.01624
  777          4     0.00743
  778          5     0.02617
  779          6     0.01915
  780          2     0.00883
  781          3     0.01093
  782          2     0.00522
  783          4     0.00594
  784          5     0.00972
  786          3     0.00560
  788          6     0.01517
  789          4     0.01533
  790          5     0.00882
  791          4     0.00921
  792          2     0.01359
  793          4     0.01393
  794          2     0.00594
  796          1     0.00901
  797          3     0.01043
  798          2     0.00673
  799          4     0.01125
  800          2     0.00927
  801          3     0.01344
  802          6     0.01673
  803          3     0.00568
  804          3     0.01512
  805          3     0.01224
  806          3     0.01292
  807          4     0.01249
  808          4     0.01591
  809          4     0.00676
  810          2     0.01263
  811          2     0.00773
  812          5     0.01504
  813          5     0.01085
  814          2     0.01215
  815          2     0.01323
  816          3     0.00530
  817          5     0.00647
  818          5     0.00592
  819          2     0.00471
  820          4     0.00958
  821          2     0.00576
  822          3     0.01026
  823          1     0.00538
  824          8     0.00833
  825          1     0.00558
  826          5     0.01039
  827          8     0.04693
  828          7     0.01165
  829          2     0.00543
  830          7     0.01091
  831          5     0.00592
  832          2     0.00893
  833          2     0.00759
  834          3     0.00707
  835          3     0.01116
  836          4     0.01588
  837          5     0.00977
  838          3     0.01052
  839          6     0.02422
  840          3     0.00946
  841          6     0.02330
  842          8     0.02071
  843          2     0.01033
  844          2     0.00520
  845          4     0.00668
  846          3     0.00979
  847          8     0.01931
  848          6     0.02462
  849          3     0.00574
  850          3     0.00587
  851          3     0.01613
  852          2     0.00991
  853          5     0.01075
  854          6     0.00925
  855          7     0.00816
  856          2     0.00507
  857          2     0.00688
  858          8     0.00589
  859          5     0.00974
  860          3     0.00826
  861          5     0.01198
  862          2     0.01565
  863          3     0.00987
  864          8     0.01327
  865          8     0.01201
  866          7     0.00679
  867          5     0.01012
  868          7     0.00973
  869          7     0.00641
  870          3     0.00530
  871          5     0.00681
  872         10     0.01027
  873          5     0.00791
  874         10     0.01645
  875          4     0.01232
  876          3     0.01313
  877          5     0.00828
  878          6     0.00911
  879          7     0.01590
  880          3     0.01007
  881          2     0.00547
  882          3     0.00542
  883          5     0.00916
  884          4     0.01283
  885          3     0.01307
  886          2     0.00844
  887          3     0.01439
  888          6     0.01242
  889          3     0.00662
  890          5     0.01639
  891          5     0.00975
  892          6     0.00611
  893          2     0.00549
  894          4     0.00525
  895          7     0.02322
  896          5     0.00835
  897          7     0.00638
  898          8     0.01948
  899          3     0.00561
  900          3     0.01041
  901          4     0.00608
  902          2     0.00505
  903          3     0.01056
  904          1     0.01113
  905          3     0.00535
  906          4     0.01041
  907          4     0.01031
  908          5     0.00705
  909          5     0.00880
  910          5     0.00835
  911         10     0.02196
  912          4     0.00605
  913          3     0.00531
  914          2     0.00549
  915          5     0.02555
  916          5     0.01391
  917          4     0.00927
  918          4     0.01142
  919          8     0.01117
  920          6     0.01096
  921          8     0.01506
  922          7     0.01813
  923          8     0.01153
  924          7     0.01084
  925          6     0.01139
  926          4     0.01004
  927          5     0.00971
  928          8     0.01301
  929          3     0.00959
  930          4     0.01631
  931          3     0.01794
  932          5     0.00990
  933          4     0.01734
  934          6     0.00542
  935          5     0.01243
  936          4     0.00700
  937          2     0.00527
  938          4     0.00525
  939          5     0.01088
  940          4     0.00908
  941          7     0.01957
  942          4     0.00658
  943          2     0.00884
  944          4     0.00667
  945          3     0.01140
  946          5     0.00835
  947          4     0.00921
  948          5     0.00907
  949          3     0.01670
  950          4     0.01312
  951          4     0.00537
  952          4     0.00905
  953          7     0.00953
  954          7     0.01093
  955          5     0.00764
  956          7     0.01902
  957         12     0.01751
  958          9     0.01653
  959          7     0.01174
  960          3     0.00529
  961          7     0.01309
  962          5     0.00593
  963          9     0.01012
  964          6     0.04472
  965          4     0.01337
  966          3     0.01005
  967          4     0.00624
  968          8     0.03079
  969          3     0.00593
  970          8     0.02144
  971          5     0.00907
  972          7     0.00929
  973          3     0.01784
  974          5     0.01036
  975          3     0.00823
  976          4     0.00622
  977          7     0.01797
  978         11     0.02065
  979          6     0.00988
  980          3     0.01038
  981          3     0.00787
  982          3     0.01003
  983          6     0.01132
  984          5     0.00895
  985          7     0.02429
  986          6     0.01128
  987          5     0.01581
  988          8     0.01001
  989          5     0.00603
  990          8     0.01881
  991          8     0.01171
  992          7     0.00854
  993          7     0.01060
  994          5     0.01134
  995          5     0.00855
  996          4     0.00614
  997          4     0.00624
  998          7     0.00878
  999         11     0.01977
 1000          5     0.00785
 1001          7     0.00753
 1002          8     0.00650
 1003          6     0.00846
 1004          8     0.01565
 1005          6     0.01407
 1006          6     0.01056
 1007          4     0.01077
 1008          6     0.01010
 1009          9     0.01648
 1010          5     0.01116
 1011          4     0.00639
 1012          7     0.01645
 1013          8     0.00688
 1014          5     0.01954
 1015          6     0.01348
 1016          5     0.00645
 1017          7     0.01129
 1018          2     0.00520
 1019          6     0.00668
 1020          5     0.01224
 1021          7     0.00903
 1022          7     0.01591
 1023          4     0.00594
 1024          6     0.00963
 1025          3     0.00548
 1026          4     0.01201
 1027          9     0.01015
 1028          5     0.01040
 1029          2     0.00763
 1030          6     0.00641
 1031          8     0.01671
 1032          7     0.00652
 1033          2     0.00562
 1034          4     0.01039
 1035          5     0.01541
 1036          6     0.00569
 1037          4     0.00592
 1038          4     0.00553
 1039          5     0.00537
 1040          3     0.00920
 1041          6     0.01353
 1042          5     0.00687
 1043          8     0.02148
 1044          9     0.00975
 1045          3     0.00518
 1046          6     0.00629
 1047          6     0.00999
 1048          2     0.01248
 1049          4     0.00546
 1050          3     0.00530
 1051          5     0.01466
 1052          6     0.01879
 1053          3     0.00522
 1054          3     0.00540
 1055          6     0.01946
 1056          9     0.02295
 1057          4     0.01547
 1058          7     0.00656
 1059          7     0.01527
 1060          6     0.00811
 1061          5     0.01079
 1062          6     0.00863
 1063          6     0.02128
 1064          2     0.00496
 1065          3     0.02043
 1066          6     0.00807
 1067          9     0.01048
 1068          5     0.01699
 1069          9     0.02721
 1070         10     0.02067
 1071          1     0.00513
 1072          4     0.01268
 1073          4     0.00593
 1074          5     0.00597
 1075          5     0.01345
 1076          6     0.01466
 1077          4     0.00755
 1078          4     0.01640
 1079          4     0.00760
 1080          9     0.01063
 1081          9     0.00802
 1082          4     0.00666
 1083          3     0.01079
 1084         10     0.00795
 1085          4     0.00840
 1086          6     0.01213
 1087          5     0.01017
 1088          5     0.01348
 1089          2     0.00488
 1090          7     0.00735
 1091          2     0.00991
 1092          3     0.00589
 1093          8     0.01064
 1094          5     0.00819
 1095          4     0.01022
 1096          8     0.00838
 1097          7     0.02389
 1098          1     0.00500
 1099          4     0.00850
 1100          7     0.01093
 1101          6     0.01117
 1102          7     0.01601
 1103          4     0.00920
 1104          8     0.02066
 1105          5     0.01759
 1106         10     0.01107
 1107          8     0.00867
 1108          9     0.00876
 1109          2     0.00509
 1110          5     0.01305
 1111          5     0.00617
 1112          5     0.01153
 1113          7     0.00707
 1114          4     0.01076
 1115          4     0.00527
 1116          4     0.01353
 1117         10     0.00634
 1118          5     0.02265
 1119          7     0.02488
 1120          6     0.00583
 1121          2     0.00537
 1122          5     0.00555
 1123          3     0.01291
 1124          8     0.01091
 1125          5     0.00561
 1126          2     0.00673
 1127          5     0.02142
 1128          3     0.01105
 1129          6     0.00583
 1130          4     0.00817
 1131          4     0.01155
 1132          9     0.02383
 1133          6     0.01316
 1134          6     0.01987
 1135          2     0.00561
 1136         11     0.01475
 1137          5     0.00860
 1138          5     0.01145
 1139          4     0.00858
 1140          6     0.01064
 1141          6     0.00615
 1142          8     0.01809
 1143          7     0.00902
 1144          2     0.00536
 1145          4     0.00977
 1146          6     0.01152
 1147          6     0.00972
 1148          3     0.01250
 1149          5     0.01002
 1150          4     0.00618
 1151          5     0.01487
 1152          4     0.00570
 1153          5     0.00592
 1154          5     0.01128
 1155          6     0.00529
 1156          4     0.00609
 1157          7     0.01060
 1158          5     0.00827
 1159          4     0.00953
 1160          7     0.01161
 1161          5     0.00662
 1162          4     0.01401
 1163          3     0.00812
 1164          7     0.00599
 1165          6     0.00626
 1166          7     0.00642
 1167          7     0.00926
 1168          7     0.01040
 1169          4     0.00611
 1170          1     0.00481
 1171          4     0.01160
 1172          1     0.00515
 1173          7     0.00511
 1174          5     0.00788
 1175          2     0.00564
 1176          4     0.01439
 1177          2     0.00956
 1178          8     0.01414
 1179          7     0.01441
 1180          7     0.01070
 1181          8     0.00821
 1182          4     0.00564
 1183          2     0.00503
 1184          7     0.01571
 1185          2     0.00512
 1186          3     0.00565
 1187          9     0.01278
 1188          4     0.00747
 1189          6     0.00994
 1190          1     0.00854
 1191          4     0.00995
 1192          3     0.00781
 1193          3     0.02001
 1194          6     0.01026
 1195          7     0.00768
 1196          8     0.00694
 1197          3     0.00532
 1198          3     0.01348
 1199          4     0.01115
 1200          6     0.00592
 1201          5     0.00663
 1202          3     0.00555
 1203          3     0.00564
 1204          5     0.00845
 1205          5     0.00806
 1206          7     0.00887
 1207          7     0.02462
 1208          7     0.01343
 1209          6     0.00806
 1210          3     0.00940
 1211          6     0.00705
 1212          4     0.01463
 1213          4     0.00593
 1214          3     0.00545
 1215          4     0.01307
 1216          8     0.00761
 1217          5     0.01399
 1218          5     0.00626
 1219          2     0.00503
 1220          4     0.00825
 1221          3     0.00526
 1222          4     0.01297
 1223          6     0.00632
 1224          4     0.00800
 1225          5     0.00557
 1226          5     0.00545
 1227          3     0.00518
 1228          2     0.00739
 1229          2     0.00552
 1230          8     0.01692
 1231          3     0.00491
 1232          5     0.00604
 1233          9     0.00706
 1234          9     0.01331
 1235          7     0.03357
 1236          3     0.00846
 1237          2     0.00887
 1238          6     0.00601
 1239          1     0.00508
 1240          3     0.01193
 1241          7     0.01220
 1242          1     0.00494
 1243          4     0.00540
 1244          4     0.00589
 1245          1     0.00503
 1246          8     0.00797
 1247          8     0.00663
 1248          2     0.00513
 1249          2     0.00474
 1250          1     0.00481
 1251          7     0.00946
 1252          5     0.01570
 1253          1     0.00525
 1254          3     0.00519
 1255          2     0.00548
 1256          4     0.00545
 1257          3     0.01461
 1258          4     0.00760
 1259          3     0.01029
 1261          4     0.00567
 1262          2     0.00522
 1263          3     0.00573
 1264          1     0.00542
 1265          2     0.00481
 1266          4     0.01112
 1267          1     0.00521
 1268          6     0.00958
 1269          1     0.00692
 1270          6     0.02303
 1271          1     0.00514
 1272          2     0.01374
 1273          5     0.00607
 1274          1     0.00509
 1275          1     0.00557
 1276          3     0.00504
 1277          4     0.01599
 1278          6     0.01082
 1279          5     0.00608
 1280          4     0.00844
 1281          5     0.00575
 1282          1     0.00521
 1283          4     0.00565
 1284          6     0.01126
 1285          1     0.00484
 1286          6     0.02029
 1287          4     0.00571
 1288          6     0.00619
 1289          1     0.00562
 1291          5     0.01314
 1292          4     0.00628
 1293          1     0.00527
 1294          4     0.01021
 1295          5     0.00998
 1296          3     0.00568
 1297          3     0.00890
 1298          2     0.00500
 1299          2     0.00689
 1300          1     0.00582
 1301          3     0.00579
 1302          3     0.00511
 1303          4     0.01001
 1304          2     0.00629
 1305          5     0.01058
 1306          4     0.00927
 1307          2     0.03834
 1308          3     0.00649
 1309          8     0.01499
 1310          4     0.00606
 1311          7     0.01666
 1312          3     0.00501
 1313          1     0.00532
 1314          1     0.00507
 1315          1     0.00542
 1316          5     0.00996
 1317          5     0.00584
 1318          3     0.00502
 1319          1     0.00529
 1320          3     0.00797
 1321          1     0.01213
 1322          2     0.00535
 1323          1     0.00522
 1324          1     0.00474
 1325          2     0.00572
 1326          3     0.00550
 1327          3     0.00525
 1328          5     0.00530
 1329          4     0.00491
 1330          3     0.00521
 1331          2     0.00775
 1332          3     0.00518
 1333          3     0.00512
 1334          3     0.00515
 1335          1     0.00518
 1336          1     0.00982
 1337          4     0.00606
 1338          1     0.00527
 1339          2     0.00522
 1340          4     0.01028
 1341          3     0.01210
 1342          3     0.01247
 1343          3     0.01153
 1344          3     0.00571
 1345          1     0.00538
 1346          5     0.00566
 1347          2     0.00546
 1348          2     0.01375
 1349          4     0.00526
 1350          1     0.00610
 1351          2     0.00536
 1352          4     0.00789
 1353          2     0.00531
 1354          1     0.00462
 1355          3     0.01101
 1356          2     0.00501
 1357          2     0.00548
 1358          3     0.00776
 1359          2     0.00508
 1360          1     0.00516
 1361          1     0.00539
 1362          2     0.00534
 1363          3     0.01379
 1365          3     0.00505
 1366          5     0.00577
 1367          2     0.00763
 1368          4     0.01092
 1369          1     0.00519
 1370          2     0.00553
 1371          1     0.00490
 1372          2     0.00535
 1373          1     0.00465
 1374          2     0.00513
 1375          2     0.00664
 1376          2     0.00504
 1377          4     0.00537
 1378          2     0.00487
 1379          1     0.01690
 1380          3     0.01808
 1382          1     0.01000
 1383          1     0.00551
 1385          1     0.00546
 1386          4     0.00896
 1387          1     0.00515
 1388          2     0.00505
 1389          3     0.01203
 1391          1     0.00534
 1392          3     0.00887
 1393          5     0.00889
 1394          5     0.01059
 1395          4     0.00788
 1396          1     0.00927
 1397          2     0.00574
 1398          2     0.00584
 1399          2     0.00552
 1400          1     0.00833
 1401          2     0.00598
 1402          1     0.00508
 1403          3     0.01469
 1404          4     0.00580
 1405          2     0.00515
 1406          1     0.00990
 1407          1     0.00556
 1408          2     0.01084
 1409          5     0.00575
 1410          2     0.00769
 1411          2     0.00490
 1412          3     0.00632
 1414          4     0.00824
 1415          1     0.00525
 1416          3     0.00525
 1417          3     0.00788
 1418          2     0.00620
 1420          2     0.01766
 1421          2     0.00835
 1422          3     0.00571
 1423          2     0.00836
 1424          2     0.00468
 1425          3     0.00553
 1426          2     0.00501
 1427          1     0.00485
 1428          1     0.00505
 1431          4     0.01311
 1432          1     0.00508
 1433          1     0.00489
 1434          1     0.00545
 1435          2     0.00583
 1436          4     0.00956
 1438          1     0.00533
 1440          4     0.01126
 1441          2     0.00581
 1442          1     0.00505
 1443          3     0.00558
 1444          4     0.00540
 1447          1     0.00547
 1448          1     0.00534
 1449          1     0.00484
 1450          2     0.00899
 1452          1     0.00545
 1453          2     0.00576
 1454          2     0.00494
 1456          1     0.00794
 1457          1     0.00503
 1458          2     0.00550
 1459          2     0.00545
 1460          4     0.00561
 1461          2     0.00982
 1462          3     0.00655
 1463          4     0.01262
 1464          1     0.00506
 1465          1     0.00777
 1467          1     0.01015
 1468          3     0.01103
 1471          2     0.00566
 1472          2     0.01330
 1473          2     0.00594
 1474          1     0.00524
 1475          2     0.01086
 1476          1     0.00509
 1477          2     0.00568
 1478          3     0.00573
 1479          1     0.00529
 1480          1     0.00441
 1482          4     0.00629
 1483          1     0.00510
 1484          3     0.01073
 1485          1     0.00690
 1486          2     0.01037
 1487          4     0.00804
 1490          2     0.00569
 1491          1     0.00524
 1494          1     0.00519
 1498          1     0.00629
 1499          1     0.00521
 1500          1     0.00517
 1501          2     0.00783
 1502          3     0.00595
 1504          1     0.00527
 1505          1     0.00475
 1506          1     0.00548
 1507          2     0.00801
 1509          1     0.00525
 1510          1     0.00557
 1511          2     0.00525
 1512          1     0.00512
 1513          2     0.01233
 1514          1     0.00531
 1515          2     0.00564
 1517          1     0.00519
 1519          2     0.01320
 1520          1     0.00520
 1521          4     0.01037
 1524          1     0.00771
 1525          5     0.01456
 1526          1     0.00495
 1527          3     0.00547
 1528          3     0.00525
 1530          2     0.00534
 1531          3     0.00782
 1532          2     0.00549
 1534          3     0.00791
 1535          2     0.00541
 1537          1     0.00524
 1539          2     0.00495
 1541          1     0.00506
 1544          3     0.00866
 1546          1     0.00530
 1551          2     0.01031
 1553          1     0.00518
 1555          1     0.00547
 1559          4     0.00689
 1560          1     0.00521
 1561          3     0.00565
 1565          1     0.00530
 1567          1     0.00509
 1568          1     0.01035
 1569          3     0.00660
 1570          2     0.00579
 1571          2     0.00511
 1572          3     0.00821
 1573          1     0.00904
 1574          1     0.00716
 1575          1     0.00562
 1577          2     0.00527
 1578          1     0.00942
 1579          2     0.00563
 1581          1     0.00545
 1583          2     0.00547
 1585          1     0.00831
 1586          1     0.01008
 1587          1     0.00531
 1588          2     0.00506
 1589          1     0.00526
 1590          1     0.00517
 1591          2     0.00520
 1592          2     0.00479
 1594          1     0.00510
 1595          1     0.00985
 1596          2     0.00527
 1597          2     0.01081
 1601          2     0.00595
 1602          2     0.01394
 1603          2     0.00534
 1604          2     0.00490
 1605          1     0.00519
 1611          1     0.00537
 1615          1     0.00534
 1617          1     0.00563
 1621          2     0.00821
 1622          1     0.00533
 1623          1     0.00760
 1624          1     0.00775
 1625          1     0.00547
 1626          1     0.00547
 1628          1     0.00532
 1629          3     0.00812
 1631          1     0.00548
 1633          2     0.00799
 1634          1     0.00504
 1635          2     0.01160
 1636          1     0.00538
 1637          1     0.00742
 1642          2     0.00585
 1644          1     0.00632
 1647          1     0.00817
 1649          1     0.00507
 1650          1     0.00550
 1651          1     0.00499
 1652          2     0.00545
 1653          1     0.00526
 1654          1     0.00549
 1658          1     0.00863
 1659          1     0.00865
 1661          2     0.00525
 1664          1     0.00958
 1668          1     0.00530
 1670          1     0.00533
 1671          2     0.00539
 1672          1     0.00501
 1673          1     0.00520
 1675          1     0.00899
 1676          1     0.00552
 1679          2     0.01123
 1680          1     0.00523
 1681          1     0.00530
 1683          1     0.00502
 1686          1     0.00523
 1687          1     0.00502
 1688          1     0.00500
 1689          1     0.00759
 1690          1     0.00533
 1693          1     0.00555
 1694          1     0.00443
 1695          1     0.00541
 1697          1     0.00502
 1702          1     0.00951
 1704          1     0.00646
 1706          2     0.00583
 1707          1     0.01030
 1708          1     0.00524
 1711          1     0.00639
 1712          2     0.01313
 1714          1     0.00563
 1715          1     0.00606
 1717          1     0.00672
 1718          1     0.00582
 1721          1     0.00633
 1726          2     0.00608
 1729          2     0.00937
 1735          1     0.00877
 1740          1     0.01012
 1741          1     0.00529
 1745          1     0.00830
 1749          1     0.00518
 1750          1     0.00497
 1753          1     0.00516
 1762          1     0.00504
 1763          1     0.00538
 1765          3     0.00563
 1771          2     0.00803
 1772          1     0.00519
 1773          2     0.00968
 1775          1     0.00549
 1778          1     0.00477
 1779          1     0.00633
 1784          1     0.00514
 1785          1     0.00524
 1786          2     0.00509
 1789          1     0.00536
 1790          1     0.00545
 1791          1     0.00506
 1793          1     0.00498
 1796          1     0.00512
 1798          1     0.00538
 1799          1     0.00518
 1805          1     0.00544
 1818          1     0.00481
 1819          2     0.00545
 1826          1     0.00530
 1832          1     0.00542
 1846          1     0.00515
 1847          1     0.00560
 1848          1     0.00510
 1849          2     0.00550
 1851          1     0.00536
 1857          1     0.00534
 1860          1     0.00541
 1866          1     0.00545
 1871          1     0.01017
 1879          1     0.00551
 1883          1     0.00549
 1888          2     0.00958
 1901          2     0.00516
 1902          1     0.00550
 1907          1     0.00474
 1908          1     0.00555
 1914          1     0.00583
 1944          1     0.00961
 1950          1     0.00569
 1958          1     0.00589
 1961          1     0.00666
 2036          1     0.00582
 2044          1     0.00574
 2116          1     0.00972
 2175          1     0.00586
 2269          1     0.00841
 2318          1     0.01396
 2365          1     0.00538
 2375          1     0.00975
 2510          1     0.00516
 2518          1     0.00548
 2555          1     0.00544
 2569          1     0.00467
took 1390 iterations
Trial Time:          0.03400
    0          1     0.01330
   59          1     0.00534
took 2 iterations
Trial Time:          0.00042
    0          1     0.01370
  127          1     0.00513
took 2 iterations
Trial Time:          0.00042
    0          1     0.02229
   63          1     0.00987
  101          1     0.00550
  107          1     0.00537
  111          1     0.01064
  126          1     0.01005
  182          1     0.00896
  184          2     0.00649
  187          1     0.00554
  188          1     0.00488
  196          1     0.00496
  204          1     0.01109
  205          1     0.00544
  231          1     0.00514
  238          1     0.00522
  250          1     0.00500
  318          1     0.00528
  322          1     0.00481
  341          1     0.00507
took 19 iterations
Trial Time:          0.00081
    0          1     0.01264
   15          1     0.00413
took 2 iterations
Trial Time:          0.00041
    0          1     0.01757
   21          1     0.04154
   24          1     0.00771
   32          1     0.02717
   34          1     0.01172
   46          1     0.01244
   48          1     0.05465
   53          1     0.00501
   55          1     0.01239
   60          2     0.01669
   63          1     0.02501
   65          1     0.00540
   66          2     0.01469
   67          3     0.01562
   68          2     0.01765
   69          1     0.01435
   70          1     0.00898
   71          1     0.00514
   72          1     0.00913
   73          1     0.01826
   74          3     0.01648
   76          1     0.00965
   78          1     0.01146
   79          1     0.00773
   81          2     0.00992
   82          1     0.00520
   83          1     0.00516
   86          1     0.00547
   87          1     0.00537
   88          1     0.00487
   89          1     0.01053
   91          1     0.01340
   92          2     0.01021
   93          1     0.00882
   95          2     0.01007
   97          1     0.00877
   98          1     0.01436
   99          1     0.01392
  100          1     0.00938
  101          1     0.00828
  102          1     0.00580
  104          3     0.00967
  106          3     0.00567
  108          1     0.00468
  110          1     0.00523
  111          2     0.01344
  112          1     0.00492
  113          1     0.00501
  114          2     0.05139
  116          2     0.00891
  119          2     0.00684
  121          3     0.01057
  122          2     0.00811
  124          1     0.00524
  125          2     0.00765
  126          2     0.03059
  127          2     0.00566
  128          2     0.00605
  130          1     0.00558
  131          2     0.01184
  132          2     0.00581
  133          5     0.02176
  134          4     0.00813
  135          1     0.02332
  136          2     0.01708
  137          1     0.01612
  138          3     0.00796
  139          1     0.01002
  140          3     0.02508
  141          4     0.02397
  142          1     0.00513
  143          1     0.00812
  144          3     0.02009
  145          2     0.00543
  146          3     0.02175
  147          3     0.01103
  148          3     0.00838
  149          1     0.01879
  150          1     0.00522
  151          2     0.00886
  152          1     0.00902
  153          1     0.00497
  154          4     0.01082
  155          1     0.00498
  156          6     0.01132
  157          5     0.01302
  158          3     0.01171
  159          3     0.02112
  160          8     0.03008
  161          2     0.00517
  162          2     0.01142
  163          1     0.00528
  164          2     0.00547
  165          4     0.01995
  166          4     0.01476
  167          3     0.01486
  168          3     0.02270
  169          3     0.01780
  170          3     0.00575
  171          1     0.00519
  172          1     0.00982
  173          5     0.00983
  174          3     0.01720
  175          3     0.01129
  176          5     0.01055
  177          4     0.01280
  178          2     0.00571
  179          5     0.01455
  180          5     0.00635
  181          3     0.01162
  182          3     0.00963
  184          5     0.02499
  185          4     0.01915
  186          6     0.01248
  187          4     0.01253
  188          5     0.01502
  189          4     0.01418
  190          4     0.05520
  191          1     0.00814
  193          6     0.02398
  194          3     0.00631
  195          2     0.00818
  196          4     0.00995
  197          2     0.00787
  198          1     0.00814
  199          2     0.01011
  200          8     0.01661
  201          2     0.01318
  202          2     0.01196
  203          7     0.02295
  204          7     0.01249
  205          3     0.00747
  206          4     0.00788
  207          3     0.01168
  208          4     0.00864
  209          5     0.02365
  210          8     0.01718
  211          6     0.02195
  212          4     0.00941
  213          4     0.01676
  214          5     0.01124
  215          9     0.03629
  216          6     0.01122
  217          5     0.00969
  218          5     0.01693
  219          6     0.01626
  220          7     0.01878
  221          6     0.01683
  222          3     0.00691
  223          6     0.02045
  224          2     0.01251
  225          3     0.01899
  226          5     0.00678
  227          3     0.03041
  228          4     0.01181
  229          7     0.01567
  230         13     0.02583
  231          7     0.02052
  232          4     0.00574
  233          5     0.01882
  234          7     0.01690
  235          3     0.00812
  236          6     0.01682
  237          3     0.00793
  238          6     0.01103
  239          6     0.01499
  240          3     0.00931
  241          6     0.01137
  242          8     0.02020
  243          8     0.03574
  244          9     0.01250
  245          9     0.02759
  246          6     0.00684
  247         13     0.03563
  248          3     0.01534
  249          8     0.01571
  250          5     0.01415
  251          8     0.00688
  252          8     0.01533
  253         10     0.01769
  254          4     0.00791
  255          5     0.01140
  256          6     0.01790
  257          8     0.01885
  258          9     0.04824
  259          9     0.01713
  260         12     0.02667
  261          8     0.01397
  262          3     0.00538
  263          6     0.02143
  264          2     0.00545
  265         11     0.01807
  266          7     0.01845
  267         11     0.01874
  268          9     0.02337
  269          7     0.00901
  270          8     0.00641
  271          6     0.01865
  272          8     0.03836
  273         11     0.01827
  274          8     0.02716
  275          5     0.01591
  276          7     0.04058
  277          6     0.01316
  278         10     0.03333
  279          4     0.01154
  280         10     0.02684
  281         12     0.02580
  282          5     0.00668
  283         12     0.01406
  284          8     0.00665
  285          6     0.01453
  286          5     0.00587
  287          8     0.02333
  288          4     0.02217
  289          8     0.01452
  290         12     0.06482
  291          8     0.02495
  292         15     0.02472
  293          8     0.00707
  294          9     0.03069
  295          7     0.00631
  296          8     0.01814
  297         10     0.01908
  298          8     0.01935
  299         10     0.05139
  300          8     0.01559
  301          6     0.02217
  302          5     0.00996
  303         14     0.04078
  304          7     0.00931
  305          7     0.01358
  306          8     0.01707
  307          8     0.01366
  308         12     0.02255
  309         13     0.03062
  310          7     0.01558
  311         15     0.02322
  312          6     0.01341
  313         12     0.01750
  314         11     0.01814
  315          8     0.02745
  316          9     0.02423
  317          6     0.00686
  318          7     0.01529
  319         10     0.01903
  320         11     0.01742
  321          9     0.01688
  322         13     0.02523
  323         10     0.01077
  324          8     0.01737
  325         11     0.01605
  326         16     0.06021
  327         18     0.01484
  328         12     0.02951
  329          7     0.01680
  330         12     0.01902
  331          7     0.02225
  332         13     0.02564
  333         10     0.03341
  334          9     0.01067
  335         12     0.01107
  336         12     0.01699
  337         11     0.00856
  338          9     0.01186
  339         11     0.03531
  340          9     0.02618
  341         12     0.02259
  342          8     0.01571
  343         12     0.02623
  344         17     0.01199
  345         17     0.03148
  346          7     0.01047
  347         13     0.02429
  348         12     0.01667
  349         17     0.02231
  350          9     0.02168
  351         12     0.01151
  352         15     0.02057
  353         12     0.00854
  354         15     0.03123
  355         18     0.03286
  356         16     0.01202
  357         15     0.03484
  358         10     0.01342
  359          8     0.00872
  360         19     0.02670
  361         15     0.01707
  362         18     0.01642
  363         12     0.01556
  364         15     0.02165
  365         13     0.01429
  366         26     0.02476
  367         22     0.01934
  368         16     0.02774
  369         12     0.04374
  370         19     0.03318
  371         19     0.02687
  372         21     0.02028
  373         16     0.03272
  374         14     0.02473
  375         20     0.04265
  376         14     0.02147
  377         17     0.02913
  378          7     0.01335
  379         13     0.03818
  380         20     0.02027
  381         11     0.01111
  382         11     0.01050
  383         14     0.03025
  384         15     0.01798
  385         16     0.02305
  386         19     0.02453
  387         23     0.04427
  388         26     0.02900
  389         18     0.04070
  390         18     0.02333
  391         13     0.01403
  392         19     0.02678
  393         18     0.01857
  394         16     0.01784
  395         13     0.02159
  396         19     0.01940
  397         26     0.02072
  398         11     0.01989
  399         13     0.02945
  400         20     0.02166
  401         17     0.03225
  402         17     0.01765
  403         24     0.03751
  404         20     0.01965
  405         23     0.01592
  406         20     0.03029
  407         20     0.05314
  408         16     0.02297
  409         16     0.04278
  410         22     0.04072
  411         17     0.01702
  412         18     0.03919
  413         17     0.03905
  414         26     0.02500
  415         20     0.02823
  416         30     0.02924
  417         24     0.06604
  418         23     0.02434
  419         22     0.01469
  420         31     0.02755
  421         18     0.01842
  422         25     0.05418
  423         23     0.02140
  424         23     0.03870
  425         25     0.03443
  426         22     0.04408
  427         16     0.02723
  428         24     0.03071
  429         18     0.03229
  430         24     0.02939
  431         21     0.04098
  432         20     0.02903
  433         18     0.02403
  434         34     0.05003
  435         28     0.03206
  436         20     0.02509
  437         22     0.03390
  438         24     0.01123
  439         29     0.05004
  440         21     0.02333
  441         27     0.01894
  442         25     0.04158
  443         25     0.01999
  444         19     0.03481
  445         34     0.04011
  446         22     0.03142
  447         21     0.03618
  448         21     0.06322
  449         27     0.03299
  450         29     0.03398
  451         28     0.03580
  452         18     0.02193
  453         25     0.01373
  454         29     0.04409
  455         31     0.02277
  456         24     0.02906
  457         41     0.06220
  458         30     0.03522
  459         28     0.02180
  460         26     0.02456
  461         25     0.01679
  462         30     0.04492
  463         26     0.02649
  464         21     0.02825
  465         35     0.02218
  466         31     0.02936
  467         27     0.01601
  468         31     0.05041
  469         32     0.05276
  470         30     0.02157
  471         26     0.04517
  472         25     0.06964
  473         25     0.02439
  474         26     0.02339
  475         18     0.01702
  476         35     0.04278
  477         41     0.04628
  478         25     0.02785
  479         20     0.03503
  480         32     0.03303
  481         20     0.03103
  482         30     0.03508
  483         35     0.03214
  484         24     0.01438
  485         29     0.02303
  486         29     0.02954
  487         38     0.02582
  488         29     0.02867
  489         24     0.03560
  490         29     0.02115
  491         36     0.03430
  492         16     0.00955
  493         19     0.01425
  494         27     0.03387
  495         32     0.01599
  496         21     0.01023
  497         23     0.04126
  498         28     0.02186
  499         31     0.02243
  500         27     0.01606
  501         33     0.03285
  502         39     0.06937
  503         33     0.03370
  504         34     0.03269
  505         36     0.03338
  506         31     0.02509
  507         26     0.08970
  508         32     0.01462
  509         34     0.03075
  510         33     0.04249
  511         34     0.03385
  512         34     0.01867
  513         33     0.03628
  514         34     0.03074
  515         31     0.05924
  516         33     0.03040
  517         36     0.03186
  518         32     0.03517
  519         41     0.05277
  520         27     0.02744
  521         37     0.02441
  522         43     0.03181
  523         31     0.02270
  524         39     0.03785
  525         29     0.03206
  526         27     0.03275
  527         33     0.03420
  528         32     0.01961
  529         56     0.04233
  530         31     0.03940
  531         33     0.02892
  532         34     0.04691
  533         39     0.05010
  534         36     0.02992
  535         33     0.02087
  536         26     0.01740
  537         44     0.04292
  538         30     0.02525
  539         35     0.04254
  540         46     0.04767
  541         33     0.04544
  542         31     0.03376
  543         34     0.05005
  544         38     0.03934
  545         29     0.02551
  546         38     0.02374
  547         35     0.05922
  548         42     0.02814
  549         33     0.01376
  550         38     0.03637
  551         36     0.02819
  552         31     0.01907
  553         38     0.07218
  554         42     0.04115
  555         37     0.02892
  556         38     0.03367
  557         46     0.05093
  558         45     0.04465
  559         35     0.04040
  560         42     0.04041
  561         42     0.03621
  562         34     0.02171
  563         38     0.03639
  564         28     0.04210
  565         35     0.03237
  566         43     0.03082
  567         45     0.03953
  568         42     0.04225
  569         33     0.03250
  570         41     0.02148
  571         55     0.06996
  572         44     0.05325
  573         38     0.04440
  574         48     0.07027
  575         40     0.03954
  576         54     0.02719
  577         45     0.04223
  578         54     0.04505
  579         44     0.05429
  580         53     0.03051
  581         40     0.02888
  582         54     0.02427
  583         47     0.04859
  584         41     0.02272
  585         38     0.02620
  586         35     0.03681
  587         44     0.04530
  588         51     0.05609
  589         39     0.04006
  590         44     0.03055
  591         44     0.05173
  592         46     0.04089
  593         38     0.03348
  594         48     0.02538
  595         45     0.03431
  596         42     0.02330
  597         45     0.02847
  598         45     0.04520
  599         44     0.03021
  600         39     0.02925
  601         46     0.02355
  602         45     0.02957
  603         46     0.03770
  604         47     0.03064
  605         58     0.02987
  606         37     0.03034
  607         50     0.03562
  608         46     0.02579
  609         51     0.02849
  610         40     0.01994
  611         39     0.02963
  612         47     0.04162
  613         50     0.06295
  614         55     0.03665
  615         46     0.02069
  616         49     0.06236
  617         53     0.05678
  618         53     0.04281
  619         32     0.03509
  620         54     0.05480
  621         46     0.03194
  622         46     0.03642
  623         40     0.01569
  624         48     0.03198
  625         58     0.04327
  626         56     0.04939
  627         59     0.02782
  628         60     0.03231
  629         42     0.02302
  630         45     0.03101
  631         42     0.03563
  632         52     0.03597
  633         52     0.04061
  634         41     0.03409
  635         52     0.03665
  636         60     0.03339
  637         49     0.02598
  638         43     0.02045
  639         46     0.03103
  640         48     0.02302
  641         50     0.04977
  642         47     0.07493
  643         54     0.04598
  644         50     0.06223
  645         46     0.03732
  646         47     0.03445
  647         44     0.02339
  648         58     0.02281
  649         40     0.01700
  650         51     0.03209
  651         55     0.03715
  652         61     0.05207
  653         49     0.05012
  654         54     0.02870
  655         61     0.06336
  656         58     0.04312
  657         52     0.03648
  658         44     0.02668
  659         46     0.03912
  660         53     0.04210
  661         42     0.02110
  662         46     0.02909
  663         62     0.03430
  664         47     0.03862
  665         46     0.05346
  666         55     0.05464
  667         60     0.03852
  668         60     0.06954
  669         47     0.02625
  670         53     0.03052
  671         52     0.03140
  672         55     0.04878
  673         62     0.04077
  674         69     0.03191
  675         43     0.05552
  676         52     0.05797
  677         48     0.04615
  678         60     0.06055
  679         50     0.04294
  680         59     0.02498
  681         51     0.02675
  682         53     0.04180
  683         49     0.01736
  684         65     0.04141
  685         56     0.04465
  686         57     0.03088
  687         37     0.02769
  688         55     0.04283
  689         65     0.05780
  690         61     0.02624
  691         58     0.03481
  692         45     0.02957
  693         55     0.04789
  694         65     0.02615
  695         67     0.04434
  696         46     0.02679
  697         47     0.04926
  698         51     0.03410
  699         48     0.02835
  700         53     0.05194
  701         56     0.02413
  702         50     0.03036
  703         67     0.04602
  704         53     0.03746
  705         62     0.04717
  706         63     0.04675
  707         57     0.03293
  708         47     0.03701
  709         54     0.03346
  710         49     0.01979
  711         51     0.04694
  712         58     0.03337
  713         54     0.03536
  714         58     0.03283
  715         56     0.05922
  716         50     0.03547
  717         47     0.05764
  718         55     0.06790
  719         68     0.05865
  720         41     0.04429
  721         56     0.04563
  722         51     0.04077
  723         45     0.05964
  724         63     0.06945
  725         52     0.06175
  726         48     0.05211
  727         58     0.03993
  728         52     0.03342
  729         50     0.05623
  730         54     0.04881
  731         53     0.05957
  732         50     0.07248
  733         62     0.03841
  734         63     0.04312
  735         66     0.05014
  736         58     0.07156
  737         55     0.03553
  738         71     0.06117
  739         61     0.03300
  740         45     0.01455
  741         60     0.04148
  742         54     0.02233
  743         51     0.03868
  744         58     0.04408
  745         62     0.05476
  746         48     0.03747
  747         55     0.03294
  748         57     0.03324
  749         54     0.04237
  750         64     0.03403
  751         53     0.02715
  752         48     0.02320
  753         56     0.04372
  754         57     0.03440
  755         57     0.02762
  756         57     0.03764
  757         51     0.03753
  758         51     0.03348
  759         51     0.04813
  760         51     0.02666
  761         47     0.02967
  762         60     0.05786
  763         56     0.03662
  764         56     0.04132
  765         54     0.04009
  766         50     0.03787
  767         63     0.02511
  768         51     0.04300
  769         63     0.03731
  770         59     0.04400
  771         58     0.02360
  772         45     0.02507
  773         56     0.05321
  774         65     0.05718
  775         52     0.02247
  776         44     0.01850
  777         57     0.05309
  778         61     0.02686
  779         67     0.03658
  780         72     0.03499
  781         59     0.04418
  782         62     0.05763
  783         34     0.04024
  784         56     0.02931
  785         51     0.02508
  786         58     0.02663
  787         51     0.02940
  788         67     0.03056
  789         45     0.02325
  790         55     0.02684
  791         38     0.02416
  792         61     0.03660
  793         43     0.03376
  794         39     0.01116
  795         52     0.03054
  796         64     0.04747
  797         49     0.03884
  798         44     0.04660
  799         37     0.03761
  800         58     0.03758
  801         50     0.03438
  802         33     0.02478
  803         52     0.04535
  804         71     0.02580
  805         47     0.03145
  806         51     0.03878
  807         59     0.03901
  808         54     0.02951
  809         55     0.02679
  810         49     0.03468
  811         49     0.02604
  812         43     0.01576
  813         55     0.04131
  814         52     0.02732
  815         50     0.02244
  816         59     0.04641
  817         46     0.02344
  818         54     0.03214
  819         57     0.03341
  820         53     0.04229
  821         66     0.04373
  822         47     0.02169
  823         57     0.02124
  824         54     0.04928
  825         43     0.03046
  826         54     0.04171
  827         64     0.04701
  828         53     0.04114
  829         77     0.02514
  830         49     0.02038
  831         56     0.03136
  832         39     0.02955
  833         58     0.05531
  834         50     0.03916
  835         46     0.02859
  836         57     0.03840
  837         58     0.03994
  838         56     0.02646
  839         55     0.02946
  840         59     0.03529
  841         70     0.02866
  842         58     0.04442
  843         52     0.02500
  844         50     0.08961
  845         54     0.04185
  846         52     0.05173
  847         49     0.03106
  848         52     0.03040
  849         43     0.02533
  850         55     0.05364
  851         49     0.04048
  852         66     0.03873
  853         44     0.02499
  854         70     0.04019
  855         55     0.02973
  856         52     0.03929
  857         43     0.03340
  858         51     0.05478
  859         60     0.03600
  860         53     0.02579
  861         55     0.04884
  862         51     0.03263
  863         51     0.02933
  864         45     0.02507
  865         49     0.02835
  866         42     0.03418
  867         54     0.02361
  868         39     0.01390
  869         50     0.02459
  870         55     0.03778
  871         51     0.04411
  872         44     0.03356
  873         43     0.02704
  874         46     0.02825
  875         48     0.02812
  876         53     0.04512
  877         47     0.03220
  878         37     0.02191
  879         52     0.03274
  880         48     0.03523
  881         53     0.03225
  882         46     0.02390
  883         47     0.02368
  884         54     0.03141
  885         59     0.04603
  886         51     0.03129
  887         40     0.01815
  888         54     0.01994
  889         54     0.04323
  890         49     0.03184
  891         47     0.02899
  892         53     0.02394
  893         68     0.05874
  894         52     0.03027
  895         63     0.01917
  896         51     0.03782
  897         57     0.04314
  898         53     0.04081
  899         57     0.02701
  900         66     0.03517
  901         50     0.02198
  902         50     0.01871
  903         41     0.02443
  904         58     0.03696
  905         42     0.02223
  906         47     0.04014
  907         66     0.03533
  908         50     0.02593
  909         47     0.02378
  910         54     0.04172
  911         57     0.02499
  912         49     0.05477
  913         53     0.02488
  914         53     0.02695
  915         38     0.02939
  916         41     0.03467
  917         35     0.01919
  918         41     0.01837
  919         47     0.02756
  920         44     0.05042
  921         45     0.03115
  922         43     0.02207
  923         49     0.02094
  924         46     0.03998
  925         43     0.02390
  926         39     0.01986
  927         48     0.02121
  928         56     0.04985
  929         42     0.02931
  930         62     0.02515
  931         35     0.02137
  932         45     0.01795
  933         60     0.03240
  934         41     0.02694
  935         48     0.03809
  936         49     0.03460
  937         47     0.02289
  938         40     0.01828
  939         62     0.03612
  940         42     0.02005
  941         51     0.03349
  942         53     0.03620
  943         52     0.02907
  944         46     0.03415
  945         49     0.03137
  946         56     0.01990
  947         48     0.03612
  948         52     0.04295
  949         52     0.03102
  950         54     0.02692
  951         53     0.02118
  952         63     0.03309
  953         35     0.02498
  954         57     0.04161
  955         54     0.02489
  956         47     0.03311
  957         42     0.02913
  958         45     0.03111
  959         51     0.03140
  960         43     0.02026
  961         42     0.02996
  962         49     0.03064
  963         45     0.02149
  964         52     0.02576
  965         30     0.01504
  966         43     0.03163
  967         49     0.02645
  968         52     0.02969
  969         53     0.03719
  970         47     0.02729
  971         53     0.02518
  972         49     0.02608
  973         51     0.04681
  974         45     0.03060
  975         43     0.01860
  976         47     0.03043
  977         40     0.02116
  978         38     0.04046
  979         52     0.01733
  980         43     0.03617
  981         51     0.02849
  982         37     0.01760
  983         39     0.02041
  984         42     0.02619
  985         43     0.02934
  986         37     0.01507
  987         32     0.02160
  988         36     0.01324
  989         41     0.02814
  990         50     0.02540
  991         36     0.01500
  992         29     0.02506
  993         50     0.02132
  994         41     0.02025
  995         51     0.01719
  996         40     0.03279
  997         34     0.01436
  998         44     0.01644
  999         59     0.02359
 1000         48     0.03320
 1001         39     0.01212
 1002         42     0.02429
 1003         38     0.02020
 1004         32     0.01979
 1005         31     0.02506
 1006         44     0.01789
 1007         33     0.01626
 1008         38     0.01808
 1009         40     0.02811
 1010         37     0.01548
 1011         42     0.01625
 1012         31     0.02009
 1013         44     0.02197
 1014         41     0.02527
 1015         30     0.02460
 1016         37     0.02215
 1017         42     0.02209
 1018         40     0.02459
 1019         47     0.02438
 1020         30     0.02150
 1021         38     0.02987
 1022         28     0.01634
 1023         41     0.02598
 1024         26     0.01924
 1025         29     0.00997
 1026         31     0.02406
 1027         50     0.01791
 1028         49     0.03243
 1029         43     0.02320
 1030         44     0.02009
 1031         43     0.02360
 1032         41     0.02344
 1033         40     0.02464
 1034         32     0.01797
 1035         34     0.01700
 1036         30     0.01812
 1037         42     0.03599
 1038         29     0.01544
 1039         30     0.01448
 1040         32     0.02328
 1041         36     0.02591
 1042         38     0.02669
 1043         33     0.02804
 1044         38     0.03121
 1045         21     0.02615
 1046         38     0.03282
 1047         37     0.02328
 1048         36     0.03619
 1049         25     0.02374
 1050         34     0.02505
 1051         33     0.03173
 1052         30     0.02260
 1053         32     0.01968
 1054         44     0.01352
 1055         31     0.02072
 1056         38     0.01478
 1057         36     0.04044
 1058         31     0.01912
 1059         44     0.02422
 1060         35     0.01875
 1061         36     0.03301
 1062         43     0.01915
 1063         34     0.01791
 1064         24     0.01996
 1065         24     0.01551
 1066         26     0.01132
 1067         32     0.01812
 1068         27     0.01711
 1069         29     0.01978
 1070         38     0.02221
 1071         43     0.03921
 1072         34     0.02375
 1073         25     0.02843
 1074         31     0.01080
 1075         34     0.01835
 1076         33     0.02197
 1077         48     0.03638
 1078         40     0.02131
 1079         39     0.02226
 1080         34     0.02735
 1081         32     0.02292
 1082         33     0.02142
 1083         28     0.02656
 1084         40     0.01082
 1085         30     0.01413
 1086         37     0.03028
 1087         32     0.01721
 1088         35     0.02099
 1089         35     0.01794
 1090         30     0.02123
 1091         35     0.02521
 1092         20     0.01468
 1093         33     0.01335
 1094         28     0.01591
 1095         36     0.02023
 1096         44     0.02828
 1097         47     0.01499
 1098         32     0.02975
 1099         28     0.02048
 1100         37     0.01637
 1101         25     0.01441
 1102         35     0.01758
 1103         29     0.02421
 1104         27     0.01671
 1105         28     0.01623
 1106         29     0.01695
 1107         35     0.01523
 1108         27     0.02846
 1109         24     0.03977
 1110         38     0.02547
 1111         28     0.01459
 1112         27     0.01208
 1113         42     0.01388
 1114         24     0.00912
 1115         34     0.01682
 1116         32     0.01824
 1117         30     0.02347
 1118         37     0.02936
 1119         27     0.01780
 1120         24     0.01631
 1121         18     0.01307
 1122         26     0.02409
 1123         26     0.01901
 1124         24     0.01643
 1125         30     0.03517
 1126         35     0.02431
 1127         37     0.03989
 1128         27     0.02622
 1129         26     0.01769
 1130         31     0.01716
 1131         21     0.01275
 1132         27     0.01643
 1133         29     0.01186
 1134         32     0.02235
 1135         34     0.01956
 1136         32     0.02266
 1137         25     0.01755
 1138         28     0.02579
 1139         24     0.01095
 1140         33     0.02977
 1141         27     0.01561
 1142         25     0.03731
 1143         24     0.01638
 1144         21     0.01137
 1145         27     0.02869
 1146         27     0.01377
 1147         39     0.07054
 1148         25     0.03685
 1149         17     0.01720
 1150         24     0.01786
 1151         32     0.02316
 1152         24     0.01810
 1153         24     0.01260
 1154         29     0.01251
 1155         26     0.03145
 1156         16     0.00981
 1157         31     0.01563
 1158         29     0.01344
 1159         26     0.01354
 1160         29     0.02478
 1161         23     0.01774
 1162         23     0.01120
 1163         29     0.01469
 1164         33     0.02020
 1165         27     0.02064
 1166         17     0.01476
 1167         38     0.02055
 1168         31     0.02933
 1169         24     0.01644
 1170         29     0.01487
 1171         23     0.01736
 1172         26     0.03427
 1173         18     0.00935
 1174         25     0.02559
 1175         30     0.01518
 1176         20     0.01613
 1177         30     0.01588
 1178         20     0.01672
 1179         26     0.00960
 1180         23     0.02143
 1181         20     0.00864
 1182         30     0.01395
 1183         20     0.01912
 1184         27     0.01780
 1185         21     0.01981
 1186         16     0.00881
 1187         24     0.01124
 1188         21     0.01432
 1189         25     0.01597
 1190         30     0.01367
 1191         27     0.01956
 1192         21     0.00821
 1193         22     0.01777
 1194         20     0.02022
 1195         17     0.03012
 1196         24     0.01912
 1197         23     0.01760
 1198         20     0.01665
 1199         24     0.01107
 1200         18     0.01806
 1201         22     0.02216
 1202         18     0.01517
 1203         22     0.01299
 1204         25     0.01974
 1205         25     0.02862
 1206         24     0.02352
 1207         20     0.01154
 1208         24     0.01313
 1209         26     0.02217
 1210         26     0.01833
 1211         22     0.03492
 1212         20     0.01785
 1213         25     0.01734
 1214         25     0.03301
 1215         21     0.01560
 1216         23     0.01750
 1217         25     0.01611
 1218         16     0.01752
 1219         16     0.01035
 1220         26     0.01552
 1221         20     0.01596
 1222         27     0.02092
 1223         25     0.01776
 1224         31     0.01808
 1225         10     0.01579
 1226         21     0.01575
 1227         24     0.01312
 1228         21     0.02597
 1229         23     0.01977
 1230         22     0.01432
 1231         19     0.01679
 1232         21     0.01636
 1233         18     0.00832
 1234         21     0.02788
 1235         21     0.01669
 1236         23     0.03372
 1237         26     0.00977
 1238         24     0.01545
 1239         12     0.03235
 1240         26     0.01490
 1241         18     0.01358
 1242         25     0.02023
 1243         16     0.01078
 1244         21     0.02880
 1245         23     0.01055
 1246         13     0.00934
 1247         23     0.02390
 1248         12     0.01155
 1249         22     0.01451
 1250         18     0.02046
 1251         24     0.01699
 1252         18     0.01895
 1253         34     0.02792
 1254         25     0.01215
 1255         25     0.01472
 1256         10     0.01013
 1257         15     0.00884
 1258         27     0.02068
 1259         23     0.02345
 1260         16     0.00983
 1261         16     0.01185
 1262         16     0.01523
 1263         12     0.01435
 1264         22     0.01494
 1265         16     0.02086
 1266         19     0.03014
 1267         21     0.01503
 1268         28     0.01532
 1269         13     0.01525
 1270         18     0.01772
 1271         19     0.01328
 1272         24     0.02239
 1273         18     0.01134
 1274         12     0.01958
 1275         17     0.01808
 1276         17     0.01263
 1277         21     0.02725
 1278         12     0.02585
 1279         14     0.00842
 1280         19     0.01317
 1281         17     0.02053
 1282         15     0.01415
 1283         24     0.02784
 1284         18     0.01951
 1285         22     0.01651
 1286         14     0.00889
 1287         20     0.02371
 1288         22     0.01213
 1289         19     0.00950
 1290         23     0.02102
 1291         18     0.01177
 1292         22     0.01399
 1293         22     0.01845
 1294         13     0.00776
 1295         22     0.01085
 1296         27     0.02374
 1297         10     0.01262
 1298         20     0.01681
 1299         11     0.00658
 1300         18     0.00855
 1301         23     0.01813
 1302         22     0.01715
 1303         18     0.01007
 1304         15     0.01246
 1305          8     0.01015
 1306         16     0.01164
 1307         16     0.02157
 1308         16     0.01203
 1309         17     0.01071
 1310         22     0.01653
 1311         19     0.01511
 1312         14     0.01587
 1313         24     0.01106
 1314         22     0.02021
 1315         14     0.01031
 1316         19     0.01694
 1317         21     0.00903
 1318         21     0.02353
 1319         13     0.01303
 1320         23     0.02115
 1321         26     0.01426
 1322         17     0.01585
 1323         15     0.01301
 1324         11     0.00962
 1325         18     0.01358
 1326         20     0.01563
 1327         11     0.00720
 1328         24     0.00916
 1329          7     0.01034
 1330          6     0.00794
 1331         12     0.00689
 1332         20     0.02634
 1333         14     0.01039
 1334         13     0.01247
 1335         15     0.01611
 1336         12     0.00831
 1337         16     0.01903
 1338         18     0.01704
 1339         13     0.02231
 1340         10     0.01474
 1341         14     0.00908
 1342         15     0.00909
 1343         15     0.00839
 1344         14     0.01179
 1345         17     0.01061
 1346         14     0.01519
 1347         14     0.00788
 1348         21     0.01164
 1349         15     0.01308
 1350         20     0.00944
 1351         14     0.00951
 1352          9     0.00782
 1353         15     0.01141
 1354          8     0.01534
 1355         12     0.01086
[...]
 2332          1     0.00529
 2336          1     0.00795
 2337          1     0.01101
 2338          3     0.00513
 2339          1     0.00503
 2340          2     0.00573
 2341          1     0.00517
 2342          1     0.00513
 2343          1     0.00506
 2344          2     0.00807
 2347          1     0.00539
 2348          1     0.00619
 2349          3     0.00641
 2350          2     0.00623
 2351          1     0.00569
 2352          2     0.01815
 2354          2     0.00568
 2360          1     0.00615
 2361          2     0.00740
 2362          2     0.00514
 2364          1     0.00475
 2367          2     0.00552
 2369          1     0.00476
 2370          2     0.00570
 2373          1     0.00853
 2375          2     0.00561
 2377          1     0.01184
 2379          2     0.00534
 2381          1     0.00498
 2383          1     0.00500
 2386          2     0.01466
 2387          2     0.00789
 2388          2     0.00509
 2389          3     0.01073
 2392          1     0.00529
 2394          1     0.00507
 2396          1     0.00470
 2398          2     0.00590
 2399          1     0.00523
 2400          3     0.01436
 2401          1     0.00501
 2402          1     0.01245
 2404          2     0.00546
 2405          2     0.00504
 2406          3     0.00529
 2408          2     0.01024
 2410          1     0.01183
 2411          2     0.01242
 2412          3     0.00589
 2415          2     0.00550
 2417          1     0.00574
 2418          1     0.00480
 2421          2     0.00829
 2422          1     0.00775
 2423          1     0.00991
 2424          2     0.00878
 2426          1     0.00530
 2427          1     0.00534
 2429          1     0.01041
 2430          3     0.00898
 2431          1     0.00514
 2434          1     0.00658
 2435          1     0.00549
 2437          2     0.00534
 2440          1     0.00493
 2441          1     0.00487
 2442          2     0.00566
 2447          2     0.00541
 2449          1     0.01060
 2450          1     0.00522
 2451          1     0.01379
 2452          2     0.00918
 2453          1     0.00515
 2454          4     0.00488
 2457          1     0.00576
 2458          2     0.00682
 2460          2     0.00498
 2462          2     0.00547
 2463          1     0.00531
 2464          2     0.00504
 2466          1     0.00532
 2467          3     0.00598
 2469          1     0.00475
 2471          1     0.00509
 2474          1     0.00507
 2475          2     0.00831
 2477          1     0.00550
 2480          2     0.00492
 2481          1     0.00920
 2484          2     0.01274
 2485          1     0.00473
 2487          1     0.00558
 2488          1     0.01087
 2491          1     0.00567
 2493          1     0.00551
 2494          2     0.00519
 2495          3     0.00786
 2496          1     0.00504
 2498          1     0.00494
 2505          2     0.00554
 2514          1     0.00496
 2518          1     0.00555
 2530          4     0.00621
 2531          1     0.00502
 2533          1     0.00953
 2538          1     0.00924
 2540          1     0.00525
 2541          1     0.00490
 2546          1     0.00579
 2549          1     0.00568
 2552          2     0.00551
 2555          1     0.00537
 2559          1     0.00567
 2560          2     0.01123
 2561          2     0.00660
 2562          1     0.00845
 2571          1     0.00586
 2574          1     0.00550
 2589          1     0.00562
 2593          1     0.00612
 2600          1     0.00531
 2601          2     0.00930
 2603          1     0.00582
 2606          1     0.00739
 2607          1     0.00506
 2612          1     0.00862
 2615          1     0.00563
 2619          1     0.00552
 2623          1     0.00912
 2625          1     0.01150
 2626          1     0.00501
 2628          1     0.00528
 2634          1     0.00549
 2635          1     0.00500
 2638          1     0.00538
 2641          1     0.00487
 2642          1     0.00487
 2644          1     0.00632
 2645          1     0.00476
 2646          1     0.00519
 2648          1     0.00467
 2649          1     0.00898
 2651          1     0.00544
 2655          1     0.00487
 2657          1     0.00530
 2660          1     0.01085
 2663          1     0.00805
 2669          1     0.00556
 2671          1     0.00511
 2672          1     0.00577
 2680          1     0.00870
 2689          1     0.00918
 2692          1     0.00558
 2693          1     0.00548
 2702          1     0.00513
 2703          1     0.00602
 2713          1     0.00575
 2719          1     0.00796
 2721          1     0.00526
 2723          2     0.00531
 2731          1     0.00751
 2738          1     0.00568
 2741          1     0.00791
 2742          1     0.00484
 2745          1     0.00784
 2747          1     0.00556
 2762          1     0.00817
 2777          1     0.00509
 2778          1     0.00525
 2780          1     0.01122
 2781          1     0.00548
 2783          1     0.00545
 2786          1     0.01018
 2787          1     0.00512
 2797          1     0.00531
 2800          1     0.00483
 2802          1     0.00574
 2804          1     0.00684
 2808          2     0.00693
 2817          1     0.00647
 2834          1     0.00610
 2846          2     0.01308
 2851          1     0.00524
 2855          1     0.00603
 2867          2     0.01583
 2870          1     0.00599
 2893          1     0.00564
 2906          1     0.00522
 2908          2     0.00777
 2915          1     0.00568
 2917          1     0.00573
 2930          1     0.00812
 2943          1     0.00553
 2962          1     0.00516
 2975          1     0.00564
 2992          1     0.00468
 2993          1     0.00782
 2996          1     0.00502
 2997          1     0.00506
 3001          1     0.01314
 3036          1     0.00505
 3046          1     0.00526
 3050          1     0.00513
 3052          1     0.00527
 3059          2     0.01044
 3060          1     0.00526
 3064          1     0.00552
 3067          1     0.00496
 3068          1     0.00497
 3082          1     0.00883
 3115          1     0.00542
 3159          1     0.00926
 3162          1     0.00555
 3180          1     0.00551
 3181          1     0.00979
 3227          1     0.00557
 3245          1     0.00598
 3273          1     0.00528
 3295          1     0.00535
 3296          1     0.01143
 3307          1     0.00527
 3314          1     0.00519
 3315          1     0.00501
 3324          1     0.00544
 3351          1     0.00523
 3359          1     0.00544
 3373          1     0.06001
 3377          1     0.00890
 3382          2     0.01119
 3393          1     0.01520
 3405          2     0.00540
 3419          1     0.00551
 3425          1     0.00629
 3431          1     0.00503
 3439          1     0.00565
 3460          1     0.05939
 3466          1     0.00806
 3470          1     0.00548
 3475          1     0.00529
 3492          1     0.00610
 3515          1     0.00555
 3530          1     0.00585
 3546          1     0.00598
 3547          1     0.00630
 3549          1     0.00603
 3551          1     0.00614
 3568          1     0.00581
 3573          1     0.00570
 3583          1     0.00545
 3607          1     0.00536
 3608          1     0.00835
 3613          1     0.00602
 3630          1     0.00571
 3648          1     0.00542
 3656          1     0.00512
took 2405 iterations
Trial Time:          0.07246
    0          1     0.01796
  200          1     0.00541
  204          1     0.00533
  232          1     0.00527
took 4 iterations
Trial Time:          0.00047
    0          1     0.02694
   44          1     0.01297
   61          1     0.01176
   69          1     0.01875
   71          1     0.00568
  105          1     0.00662
  107          1     0.00564
  108          1     0.00599
  126          1     0.01981
  143          1     0.00909
  146          2     0.01361
  152          1     0.01074
  153          1     0.00522
  161          1     0.00567
  167          2     0.02356
  174          1     0.01451
  183          1     0.00927
  189          1     0.00827
  195          1     0.00514
  204          1     0.01662
  205          2     0.00549
  208          1     0.00536
  209          1     0.00511
  210          1     0.00487
  211          1     0.00496
  214          2     0.00534
  218          1     0.00557
  219          1     0.01227
  225          1     0.00581
  226          1     0.00749
  229          1     0.01193
  230          1     0.00560
  234          1     0.00525
  239          1     0.00501
  240          1     0.00524
  242          1     0.00584
  247          1     0.01631
  249          1     0.00520
  253          1     0.00558
  256          1     0.00744
  258          1     0.00526
  259          2     0.00537
  264          1     0.00505
  265          1     0.00527
  267          1     0.00537
  270          2     0.01368
  271          1     0.00594
  286          1     0.00488
  296          1     0.00487
  298          4     0.00850
  299          1     0.01668
  300          1     0.00812
  301          1     0.01155
  302          1     0.00572
  303          1     0.00503
  305          1     0.00534
  306          1     0.01238
  310          1     0.00891
  313          1     0.01111
  314          1     0.00863
  315          2     0.00917
  316          1     0.00907
  317          1     0.00530
  318          1     0.00715
  319          1     0.00518
  320          2     0.01213
  323          2     0.00729
  326          1     0.00527
  327          1     0.00503
  328          1     0.00539
  329          1     0.00515
  330          1     0.00789
  332          2     0.00995
  333          1     0.00843
  338          1     0.00532
  341          2     0.01010
  342          2     0.00537
  348          3     0.00711
  352          1     0.00499
  353          1     0.00541
  354          1     0.00472
  356          1     0.00545
  358          1     0.01192
  362          3     0.01633
  364          1     0.00515
  365          1     0.00542
  366          1     0.00713
  368          2     0.00904
  369          1     0.00523
  371          1     0.00547
  373          1     0.03922
  377          2     0.00818
  378          3     0.00540
  381          1     0.00990
  382          1     0.00531
  384          1     0.00549
  385          1     0.00474
  386          2     0.00483
  388          2     0.00995
  390          2     0.00532
  391          2     0.01346
  394          1     0.00528
  395          1     0.00547
  398          1     0.00428
  399          1     0.00546
  400          1     0.00449
  403          1     0.00536
  408          1     0.00485
  409          1     0.00503
  410          2     0.00536
  415          1     0.00530
  417          1     0.00621
  418          2     0.00556
  422          2     0.01243
  423          1     0.00537
  426          2     0.00901
  428          1     0.01509
  429          3     0.00503
  431          1     0.00519
  436          3     0.00651
  439          1     0.00828
  440          1     0.00504
  441          1     0.00556
  442          1     0.00586
  445          1     0.00553
  446          3     0.00838
  448          1     0.01132
  449          2     0.01262
  451          1     0.00528
  452          2     0.00533
  453          3     0.01364
  455          2     0.01389
  459          1     0.00931
  461          1     0.00509
  462          1     0.02031
  464          1     0.00650
  467          1     0.02404
  468          2     0.00631
  470          1     0.00529
  471          1     0.00543
  473          1     0.00788
  474          1     0.00522
  477          2     0.00839
  479          2     0.01095
  482          5     0.01503
  484          1     0.00528
  485          2     0.00563
  486          3     0.01044
  487          1     0.00539
  488          1     0.00504
  489          1     0.00539
  491          2     0.00530
  492          1     0.00809
  494          1     0.01139
  496          1     0.00495
  497          1     0.00513
  500          1     0.00516
  502          2     0.00490
  503          1     0.00541
  504          1     0.00916
  509          1     0.00468
  511          1     0.00544
  513          2     0.00562
  515          1     0.00507
  517          2     0.01275
  519          2     0.01036
  520          3     0.02116
  521          2     0.00764
  522          2     0.01021
  523          1     0.00527
  527          1     0.00510
  529          1     0.00491
  530          1     0.00502
  531          1     0.00561
  532          2     0.00930
  533          1     0.00490
  534          1     0.00510
  535          2     0.00807
  536          1     0.00511
  538          1     0.00492
  543          1     0.00498
  545          1     0.00528
  546          3     0.01143
  548          1     0.00578
  551          2     0.02174
  552          3     0.00593
  553          1     0.00564
  555          1     0.00926
  556          2     0.01215
  557          1     0.00543
  558          2     0.00592
  562          1     0.00538
  565          1     0.00782
  566          1     0.00529
  568          1     0.00901
  569          1     0.00498
  573          1     0.01055
  574          1     0.00857
  575          4     0.01396
  576          1     0.00820
  578          1     0.00493
  580          3     0.01074
  581          1     0.01143
  582          2     0.00630
  583          1     0.00566
  585          1     0.00878
  586          1     0.01313
  587          1     0.00518
  588          2     0.01115
  590          2     0.00642
  591          1     0.00529
  593          1     0.00506
  594          1     0.00741
  596          1     0.00785
  597          1     0.00578
  601          1     0.00556
  602          3     0.00489
  603          1     0.00523
  604          1     0.00609
  605          1     0.00534
  606          1     0.00545
  607          2     0.00531
  611          4     0.01042
  612          3     0.00750
  613          2     0.00578
  614          1     0.00535
  616          1     0.00513
  618          1     0.00562
  623          1     0.00593
  624          1     0.00986
  626          1     0.00558
  628          1     0.00503
  630          1     0.00562
  632          1     0.00510
  633          1     0.00542
  639          3     0.00520
  643          3     0.00513
  644          1     0.00797
  645          2     0.00641
  647          1     0.00477
  648          1     0.00761
  649          2     0.01264
  651          2     0.00537
  653          2     0.01053
  654          1     0.00535
  658          2     0.00964
  659          1     0.00511
  663          1     0.00782
  664          1     0.00544
  665          1     0.00937
  666          2     0.00513
  667          1     0.00541
  669          2     0.00973
  670          1     0.00546
  671          1     0.00518
  672          1     0.00518
  673          4     0.00513
  674          1     0.01343
  676          1     0.00604
  678          1     0.00496
  680          2     0.00535
  682          2     0.00783
  686          1     0.00484
  687          1     0.00530
  689          1     0.00867
  692          3     0.00584
  693          1     0.00499
  694          1     0.00493
  700          1     0.00535
  701          1     0.00827
  702          1     0.01421
  703          1     0.00548
  704          1     0.00799
  706          2     0.00538
  707          1     0.00809
  709          1     0.00524
  711          3     0.00795
  715          2     0.00547
  716          2     0.00897
  717          1     0.00551
  720          1     0.00493
  721          1     0.00501
  722          1     0.00522
  723          1     0.00540
  726          1     0.00552
  727          1     0.00535
  728          2     0.00518
  729          1     0.00496
  730          2     0.00533
  731          2     0.00472
  732          2     0.01015
  733          2     0.00492
  734          1     0.00481
  735          2     0.00996
  736          1     0.00499
  739          2     0.00571
  741          1     0.00534
  746          1     0.00468
  747          1     0.00493
  749          2     0.00541
  750          1     0.00501
  751          1     0.00495
  753          1     0.00509
  754          1     0.00500
  756          1     0.00530
  762          1     0.00542
  763          1     0.00902
  764          1     0.00472
  765          1     0.00512
  766          1     0.00447
  767          1     0.00509
  769          1     0.00493
  770          1     0.00534
  772          1     0.00507
  775          2     0.00804
  777          1     0.00542
  778          1     0.00498
  781          1     0.00813
  783          1     0.00522
  787          2     0.01040
  788          1     0.00527
  789          1     0.00489
  792          1     0.00859
  793          1     0.00533
  794          1     0.00465
  799          1     0.00521
  804          1     0.00563
  807          1     0.00505
  809          1     0.00495
  814          1     0.00491
  815          1     0.00537
  818          1     0.00566
  819          1     0.00488
  824          1     0.00507
  828          1     0.00470
  835          1     0.00519
  836          1     0.01062
  842          1     0.00989
  844          1     0.00510
  849          1     0.00512
  850          1     0.00551
  855          1     0.00564
  866          1     0.00518
  867          1     0.01111
  872          1     0.00516
  877          1     0.00978
  878          1     0.00477
  880          1     0.00446
  881          2     0.00563
  891          1     0.00514
  895          1     0.00936
  896          1     0.00496
  897          1     0.00509
  904          1     0.00926
  907          1     0.00520
  911          1     0.00844
  917          1     0.00547
  922          1     0.03395
  925          1     0.00549
  927          2     0.00913
  943          1     0.00481
  950          1     0.00550
  951          1     0.01768
  968          1     0.00936
  972          1     0.00534
  974          1     0.00540
  975          1     0.00903
  976          1     0.00511
  978          2     0.00608
  982          1     0.00511
  985          1     0.00756
  988          2     0.00602
 1005          1     0.00533
 1012          1     0.00537
 1013          1     0.00485
 1015          1     0.00508
 1020          1     0.00536
 1023          1     0.00500
 1026          1     0.00525
 1033          1     0.00562
 1035          1     0.00495
 1039          1     0.00562
 1045          1     0.00503
 1046          1     0.00552
 1050          1     0.00483
 1057          1     0.00517
 1061          1     0.00550
 1069          2     0.00490
 1072          1     0.00772
 1076          1     0.00836
 1084          2     0.00548
 1094          1     0.00515
 1096          1     0.00534
 1107          1     0.00518
 1117          1     0.00540
 1124          1     0.00517
 1144          1     0.00550
 1146          1     0.00555
 1167          1     0.00530
 1193          1     0.00533
 1219          1     0.00517
 1274          1     0.00491
took 402 iterations
Trial Time:          0.00938
    0          1     0.02135
   71          1     0.00565
   93          1     0.00606
  174          1     0.00546
  192          1     0.00517
took 5 iterations
Trial Time:          0.00049
    0          1     0.01494
  136          1     0.00492
took 2 iterations
Trial Time:          0.00042
    0          1     0.01544
  134          1     0.00592
  226          1     0.00518
took 3 iterations
Trial Time:          0.00044
    0          1     0.01332
   64          1     0.00507
   66          1     0.00414
took 3 iterations
Trial Time:          0.00043
Average Time:        0.01209
Exiting @ tick 1636568516000 because exiting with last active thread context
