
---------- Begin Simulation Statistics ----------
final_tick                               1442898582500                       # Number of ticks from beginning of simulation (restored from checkpoints and never reset)
host_inst_rate                                  61889                       # Simulator instruction rate (inst/s)
host_mem_usage                                 703928                       # Number of bytes of host memory used
host_op_rate                                    62055                       # Simulator op (including micro ops) rate (op/s)
host_seconds                                 25307.35                       # Real time elapsed on the host
host_tick_rate                               57015010                       # Simulator tick rate (ticks/s)
sim_freq                                 1000000000000                       # Frequency of simulated ticks
sim_insts                                  1566247292                       # Number of instructions simulated
sim_ops                                    1570451071                       # Number of ops (including micro ops) simulated
sim_seconds                                  1.442899                       # Number of seconds simulated
sim_ticks                                1442898582500                       # Number of ticks simulated
system.cpu0.branchPred.BTBCorrect                   0                       # Number of correct BTB predictions (this stat may not work properly.
system.cpu0.branchPred.BTBHitPct            85.239077                       # BTB Hit Percentage
system.cpu0.branchPred.BTBHits              191817269                       # Number of BTB hits
system.cpu0.branchPred.BTBLookups           225034428                       # Number of BTB lookups
system.cpu0.branchPred.RASInCorrect                 0                       # Number of incorrect RAS predictions.
system.cpu0.branchPred.condIncorrect         14840490                       # Number of conditional branches incorrect
system.cpu0.branchPred.condPredicted        291643145                       # Number of conditional branches predicted
system.cpu0.branchPred.indirectHits          30517416                       # Number of indirect target hits.
system.cpu0.branchPred.indirectLookups       31126155                       # Number of indirect predictor lookups.
system.cpu0.branchPred.indirectMisses          608739                       # Number of indirect misses.
system.cpu0.branchPred.lookups              378651347                       # Number of BP lookups
system.cpu0.branchPred.usedRAS                      0                       # Number of times the RAS was used to get a target.
system.cpu0.branchPredindirectMispredicted      2276367                       # Number of mispredicted indirect branches.
system.cpu0.commit.amos                       2100294                       # Number of atomic instructions committed
system.cpu0.commit.branchMispredicts          9287874                       # The number of times a branch was mispredicted
system.cpu0.commit.branches                 343026968                       # Number of branches committed
system.cpu0.commit.bw_lim_events             45766283                       # number cycles where commit BW limit reached
system.cpu0.commit.commitNonSpecStalls        6309819                       # The number of times commit has been forced to stall to communicate backwards
system.cpu0.commit.commitSquashedInsts      164216004                       # The number of squashed insts skipped by commit
system.cpu0.commit.committedInsts          1408189520                       # Number of instructions committed
system.cpu0.commit.committedOps            1410293114                       # Number of ops (including micro ops) committed
system.cpu0.commit.committed_per_cycle::samples   2445728401                       # Number of insts commited each cycle
system.cpu0.commit.committed_per_cycle::mean     0.576635                       # Number of insts commited each cycle
system.cpu0.commit.committed_per_cycle::stdev     1.383123                       # Number of insts commited each cycle
system.cpu0.commit.committed_per_cycle::underflows            0      0.00%      0.00% # Number of insts commited each cycle
system.cpu0.commit.committed_per_cycle::0   1789207953     73.16%     73.16% # Number of insts commited each cycle
system.cpu0.commit.committed_per_cycle::1    385170720     15.75%     88.91% # Number of insts commited each cycle
system.cpu0.commit.committed_per_cycle::2     95057803      3.89%     92.79% # Number of insts commited each cycle
system.cpu0.commit.committed_per_cycle::3     80396571      3.29%     96.08% # Number of insts commited each cycle
system.cpu0.commit.committed_per_cycle::4     33594522      1.37%     97.45% # Number of insts commited each cycle
system.cpu0.commit.committed_per_cycle::5      8944745      0.37%     97.82% # Number of insts commited each cycle
system.cpu0.commit.committed_per_cycle::6      4543630      0.19%     98.00% # Number of insts commited each cycle
system.cpu0.commit.committed_per_cycle::7      3046174      0.12%     98.13% # Number of insts commited each cycle
system.cpu0.commit.committed_per_cycle::8     45766283      1.87%    100.00% # Number of insts commited each cycle
system.cpu0.commit.committed_per_cycle::overflows            0      0.00%    100.00% # Number of insts commited each cycle
system.cpu0.commit.committed_per_cycle::min_value            0                       # Number of insts commited each cycle
system.cpu0.commit.committed_per_cycle::max_value            8                       # Number of insts commited each cycle
system.cpu0.commit.committed_per_cycle::total   2445728401                       # Number of insts commited each cycle
system.cpu0.commit.fp_insts                        50                       # Number of committed floating point instructions.
system.cpu0.commit.function_calls            29098670                       # Number of function calls committed.
system.cpu0.commit.int_insts               1363651284                       # Number of committed integer instructions.
system.cpu0.commit.loads                    423706060                       # Number of loads committed
system.cpu0.commit.membars                    4203764                       # Number of memory barriers committed
system.cpu0.commit.op_class_0::No_OpClass      4203770      0.30%      0.30% # Class of committed instruction
system.cpu0.commit.op_class_0::IntAlu       798542710     56.62%     56.92% # Class of committed instruction
system.cpu0.commit.op_class_0::IntMult       12621993      0.89%     57.82% # Class of committed instruction
system.cpu0.commit.op_class_0::IntDiv         3672708      0.26%     58.08% # Class of committed instruction
system.cpu0.commit.op_class_0::FloatAdd             0      0.00%     58.08% # Class of committed instruction
system.cpu0.commit.op_class_0::FloatCmp             4      0.00%     58.08% # Class of committed instruction
system.cpu0.commit.op_class_0::FloatCvt            12      0.00%     58.08% # Class of committed instruction
system.cpu0.commit.op_class_0::FloatMult            0      0.00%     58.08% # Class of committed instruction
system.cpu0.commit.op_class_0::FloatMultAcc            0      0.00%     58.08% # Class of committed instruction
system.cpu0.commit.op_class_0::FloatDiv             2      0.00%     58.08% # Class of committed instruction
system.cpu0.commit.op_class_0::FloatMisc            4      0.00%     58.08% # Class of committed instruction
system.cpu0.commit.op_class_0::FloatSqrt            0      0.00%     58.08% # Class of committed instruction
system.cpu0.commit.op_class_0::SimdAdd              0      0.00%     58.08% # Class of committed instruction
system.cpu0.commit.op_class_0::SimdAddAcc            0      0.00%     58.08% # Class of committed instruction
system.cpu0.commit.op_class_0::SimdAlu              0      0.00%     58.08% # Class of committed instruction
system.cpu0.commit.op_class_0::SimdCmp              0      0.00%     58.08% # Class of committed instruction
system.cpu0.commit.op_class_0::SimdCvt              0      0.00%     58.08% # Class of committed instruction
system.cpu0.commit.op_class_0::SimdMisc             0      0.00%     58.08% # Class of committed instruction
system.cpu0.commit.op_class_0::SimdMult             0      0.00%     58.08% # Class of committed instruction
system.cpu0.commit.op_class_0::SimdMultAcc            0      0.00%     58.08% # Class of committed instruction
system.cpu0.commit.op_class_0::SimdShift            0      0.00%     58.08% # Class of committed instruction
system.cpu0.commit.op_class_0::SimdShiftAcc            0      0.00%     58.08% # Class of committed instruction
system.cpu0.commit.op_class_0::SimdDiv              0      0.00%     58.08% # Class of committed instruction
system.cpu0.commit.op_class_0::SimdSqrt             0      0.00%     58.08% # Class of committed instruction
system.cpu0.commit.op_class_0::SimdFloatAdd            0      0.00%     58.08% # Class of committed instruction
system.cpu0.commit.op_class_0::SimdFloatAlu            0      0.00%     58.08% # Class of committed instruction
system.cpu0.commit.op_class_0::SimdFloatCmp            0      0.00%     58.08% # Class of committed instruction
system.cpu0.commit.op_class_0::SimdFloatCvt            0      0.00%     58.08% # Class of committed instruction
system.cpu0.commit.op_class_0::SimdFloatDiv            0      0.00%     58.08% # Class of committed instruction
system.cpu0.commit.op_class_0::SimdFloatMisc            0      0.00%     58.08% # Class of committed instruction
system.cpu0.commit.op_class_0::SimdFloatMult            0      0.00%     58.08% # Class of committed instruction
system.cpu0.commit.op_class_0::SimdFloatMultAcc            0      0.00%     58.08% # Class of committed instruction
system.cpu0.commit.op_class_0::SimdFloatSqrt            0      0.00%     58.08% # Class of committed instruction
system.cpu0.commit.op_class_0::SimdReduceAdd            0      0.00%     58.08% # Class of committed instruction
system.cpu0.commit.op_class_0::SimdReduceAlu            0      0.00%     58.08% # Class of committed instruction
system.cpu0.commit.op_class_0::SimdReduceCmp            0      0.00%     58.08% # Class of committed instruction
system.cpu0.commit.op_class_0::SimdFloatReduceAdd            0      0.00%     58.08% # Class of committed instruction
system.cpu0.commit.op_class_0::SimdFloatReduceCmp            0      0.00%     58.08% # Class of committed instruction
system.cpu0.commit.op_class_0::SimdAes              0      0.00%     58.08% # Class of committed instruction
system.cpu0.commit.op_class_0::SimdAesMix            0      0.00%     58.08% # Class of committed instruction
system.cpu0.commit.op_class_0::SimdSha1Hash            0      0.00%     58.08% # Class of committed instruction
system.cpu0.commit.op_class_0::SimdSha1Hash2            0      0.00%     58.08% # Class of committed instruction
system.cpu0.commit.op_class_0::SimdSha256Hash            0      0.00%     58.08% # Class of committed instruction
system.cpu0.commit.op_class_0::SimdSha256Hash2            0      0.00%     58.08% # Class of committed instruction
system.cpu0.commit.op_class_0::SimdShaSigma2            0      0.00%     58.08% # Class of committed instruction
system.cpu0.commit.op_class_0::SimdShaSigma3            0      0.00%     58.08% # Class of committed instruction
system.cpu0.commit.op_class_0::SimdPredAlu            0      0.00%     58.08% # Class of committed instruction
system.cpu0.commit.op_class_0::MemRead      425806346     30.19%     88.27% # Class of committed instruction
system.cpu0.commit.op_class_0::MemWrite     165445537     11.73%    100.00% # Class of committed instruction
system.cpu0.commit.op_class_0::FloatMemRead            8      0.00%    100.00% # Class of committed instruction
system.cpu0.commit.op_class_0::FloatMemWrite           20      0.00%    100.00% # Class of committed instruction
system.cpu0.commit.op_class_0::IprAccess            0      0.00%    100.00% # Class of committed instruction
system.cpu0.commit.op_class_0::InstPrefetch            0      0.00%    100.00% # Class of committed instruction
system.cpu0.commit.op_class_0::total       1410293114                       # Class of committed instruction
system.cpu0.commit.refs                     591251911                       # Number of memory references committed
system.cpu0.commit.swp_count                        0                       # Number of s/w prefetches committed
system.cpu0.commit.vec_insts                        0                       # Number of committed Vector instructions.
system.cpu0.committedInsts                 1408189520                       # Number of Instructions Simulated
system.cpu0.committedOps                   1410293114                       # Number of Ops (including micro ops) Simulated
system.cpu0.cpi                              2.043238                       # CPI: Cycles Per Instruction
system.cpu0.cpi_total                        2.043238                       # CPI: Total CPI of All Threads
system.cpu0.decode.BlockedCycles            483589771                       # Number of cycles decode is blocked
system.cpu0.decode.BranchMispred              5563710                       # Number of times decode detected a branch misprediction
system.cpu0.decode.BranchResolved           188454031                       # Number of times decode resolved a branch
system.cpu0.decode.DecodedInsts            1595133646                       # Number of instructions handled by decode
system.cpu0.decode.IdleCycles               855407667                       # Number of cycles decode is idle
system.cpu0.decode.RunCycles               1115648887                       # Number of cycles decode is running
system.cpu0.decode.SquashCycles               9303926                       # Number of cycles decode is squashing
system.cpu0.decode.SquashedInsts             16375852                       # Number of squashed instructions handled by decode
system.cpu0.decode.UnblockCycles              8919193                       # Number of cycles decode is unblocking
system.cpu0.dtb.accesses                            0                       # DTB accesses
system.cpu0.dtb.hits                                0                       # DTB hits
system.cpu0.dtb.misses                              0                       # DTB misses
system.cpu0.dtb.read_accesses                       0                       # DTB read accesses
system.cpu0.dtb.read_hits                           0                       # DTB read hits
system.cpu0.dtb.read_misses                         0                       # DTB read misses
system.cpu0.dtb.write_accesses                      0                       # DTB write accesses
system.cpu0.dtb.write_hits                          0                       # DTB write hits
system.cpu0.dtb.write_misses                        0                       # DTB write misses
system.cpu0.fetch.Branches                  378651347                       # Number of branches that fetch encountered
system.cpu0.fetch.CacheLines                283713660                       # Number of cache lines fetched
system.cpu0.fetch.Cycles                   1601263186                       # Number of cycles fetch has run and was not squashing or blocked
system.cpu0.fetch.IcacheSquashes              5507173                       # Number of outstanding Icache misses that were squashed
system.cpu0.fetch.IcacheWaitRetryStallCycles           43                       # Number of stall cycles due to full MSHR
system.cpu0.fetch.Insts                    1628643626                       # Number of instructions fetch has processed
system.cpu0.fetch.MiscStallCycles                 194                       # Number of cycles fetch has spent waiting on interrupts, or bad addresses, or out of MSHRs
system.cpu0.fetch.PendingTrapStallCycles          697                       # Number of stall cycles due to pending traps
system.cpu0.fetch.SquashCycles               29713306                       # Number of cycles fetch has spent squashing
system.cpu0.fetch.branchRate                 0.131601                       # Number of branch fetches per cycle
system.cpu0.fetch.icacheStallCycles         856748671                       # Number of cycles fetch is stalled on an Icache miss
system.cpu0.fetch.predictedBranches         222334685                       # Number of branches that fetch has predicted taken
system.cpu0.fetch.rate                       0.566039                       # Number of inst fetches per cycle
system.cpu0.fetch.rateDist::samples        2472869444                       # Number of instructions fetched each cycle (Total)
system.cpu0.fetch.rateDist::mean             0.659456                       # Number of instructions fetched each cycle (Total)
system.cpu0.fetch.rateDist::stdev            0.881789                       # Number of instructions fetched each cycle (Total)
system.cpu0.fetch.rateDist::underflows              0      0.00%      0.00% # Number of instructions fetched each cycle (Total)
system.cpu0.fetch.rateDist::0              1297094800     52.45%     52.45% # Number of instructions fetched each cycle (Total)
system.cpu0.fetch.rateDist::1               878371238     35.52%     87.97% # Number of instructions fetched each cycle (Total)
system.cpu0.fetch.rateDist::2               184468351      7.46%     95.43% # Number of instructions fetched each cycle (Total)
system.cpu0.fetch.rateDist::3                87295839      3.53%     98.96% # Number of instructions fetched each cycle (Total)
system.cpu0.fetch.rateDist::4                12079574      0.49%     99.45% # Number of instructions fetched each cycle (Total)
system.cpu0.fetch.rateDist::5                10232658      0.41%     99.87% # Number of instructions fetched each cycle (Total)
system.cpu0.fetch.rateDist::6                 1221312      0.05%     99.91% # Number of instructions fetched each cycle (Total)
system.cpu0.fetch.rateDist::7                 2102414      0.09%    100.00% # Number of instructions fetched each cycle (Total)
system.cpu0.fetch.rateDist::8                    3258      0.00%    100.00% # Number of instructions fetched each cycle (Total)
system.cpu0.fetch.rateDist::overflows               0      0.00%    100.00% # Number of instructions fetched each cycle (Total)
system.cpu0.fetch.rateDist::min_value               0                       # Number of instructions fetched each cycle (Total)
system.cpu0.fetch.rateDist::max_value               8                       # Number of instructions fetched each cycle (Total)
system.cpu0.fetch.rateDist::total          2472869444                       # Number of instructions fetched each cycle (Total)
system.cpu0.fp_regfile_reads                       44                       # number of floating regfile reads
system.cpu0.fp_regfile_writes                      23                       # number of floating regfile writes
system.cpu0.idleCycles                      404397003                       # Total number of cycles that the CPU has spent unscheduled due to idling
system.cpu0.iew.branchMispredicts             9410835                       # Number of branch mispredicts detected at execute
system.cpu0.iew.exec_branches               362046680                       # Number of branches executed
system.cpu0.iew.exec_nop                            0                       # number of nop insts executed
system.cpu0.iew.exec_rate                    0.540026                       # Inst execution rate
system.cpu0.iew.exec_refs                   679852922                       # number of memory reference insts executed
system.cpu0.iew.exec_stores                 202176867                       # Number of stores executed
system.cpu0.iew.exec_swp                            0                       # number of swp insts executed
system.cpu0.iew.iewBlockCycles              375284287                       # Number of cycles IEW is blocking
system.cpu0.iew.iewDispLoadInsts            476893680                       # Number of dispatched load instructions
system.cpu0.iew.iewDispNonSpecInsts           2106318                       # Number of dispatched non-speculative instructions
system.cpu0.iew.iewDispSquashedInsts          5044883                       # Number of squashed instructions skipped by dispatch
system.cpu0.iew.iewDispStoreInsts           207382014                       # Number of dispatched store instructions
system.cpu0.iew.iewDispatchedInsts         1574458399                       # Number of instructions dispatched to IQ
system.cpu0.iew.iewExecLoadInsts            477676055                       # Number of load instructions executed
system.cpu0.iew.iewExecSquashedInsts          8080488                       # Number of squashed instructions skipped in execute
system.cpu0.iew.iewExecutedInsts           1553798304                       # Number of executed instructions
system.cpu0.iew.iewIQFullEvents               1521678                       # Number of times the IQ has become full, causing a stall
system.cpu0.iew.iewIdleCycles                       0                       # Number of cycles IEW is idle
system.cpu0.iew.iewLSQFullEvents             18827084                       # Number of times the LSQ has become full, causing a stall
system.cpu0.iew.iewSquashCycles               9303926                       # Number of cycles IEW is squashing
system.cpu0.iew.iewUnblockCycles             23189064                       # Number of cycles IEW is unblocking
system.cpu0.iew.lsq.thread0.blockedLoads            0                       # Number of blocked loads due to partial load-store forwarding
system.cpu0.iew.lsq.thread0.cacheBlocked       670289                       # Number of times an access to memory failed due to the cache being blocked
system.cpu0.iew.lsq.thread0.forwLoads        33553640                       # Number of loads that had data forwarded from stores
system.cpu0.iew.lsq.thread0.ignoredResponses        28062                       # Number of memory responses ignored because the instruction is squashed
system.cpu0.iew.lsq.thread0.invAddrLoads            0                       # Number of loads ignored due to an invalid address
system.cpu0.iew.lsq.thread0.invAddrSwpfs            0                       # Number of software prefetches ignored due to an invalid address
system.cpu0.iew.lsq.thread0.memOrderViolation        16544                       # Number of memory ordering violations
system.cpu0.iew.lsq.thread0.rescheduledLoads      8423043                       # Number of loads that were rescheduled
system.cpu0.iew.lsq.thread0.squashedLoads     53187620                       # Number of loads squashed
system.cpu0.iew.lsq.thread0.squashedStores     39836152                       # Number of stores squashed
system.cpu0.iew.memOrderViolationEvents         16544                       # Number of memory order violations
system.cpu0.iew.predictedNotTakenIncorrect       534362                       # Number of branches that were predicted not taken incorrectly
system.cpu0.iew.predictedTakenIncorrect       8876473                       # Number of branches that were predicted taken incorrectly
system.cpu0.iew.wb_consumers                674647658                       # num instructions consuming a value
system.cpu0.iew.wb_count                   1540349528                       # cumulative count of insts written-back
system.cpu0.iew.wb_fanout                    0.852781                       # average fanout of values written-back
system.cpu0.iew.wb_producers                575326906                       # num instructions producing a value
system.cpu0.iew.wb_rate                      0.535352                       # insts written-back per cycle
system.cpu0.iew.wb_sent                    1540465841                       # cumulative count of insts sent to commit
system.cpu0.int_regfile_reads              1919543881                       # number of integer regfile reads
system.cpu0.int_regfile_writes              990821089                       # number of integer regfile writes
system.cpu0.ipc                              0.489419                       # IPC: Instructions Per Cycle
system.cpu0.ipc_total                        0.489419                       # IPC: Total IPC of All Threads
system.cpu0.iq.FU_type_0::No_OpClass          4205754      0.27%      0.27% # Type of FU issued
system.cpu0.iq.FU_type_0::IntAlu            860093505     55.07%     55.34% # Type of FU issued
system.cpu0.iq.FU_type_0::IntMult            12624574      0.81%     56.15% # Type of FU issued
system.cpu0.iq.FU_type_0::IntDiv              3673834      0.24%     56.38% # Type of FU issued
system.cpu0.iq.FU_type_0::FloatAdd                  0      0.00%     56.38% # Type of FU issued
system.cpu0.iq.FU_type_0::FloatCmp                  4      0.00%     56.38% # Type of FU issued
system.cpu0.iq.FU_type_0::FloatCvt                 12      0.00%     56.38% # Type of FU issued
system.cpu0.iq.FU_type_0::FloatMult                 0      0.00%     56.38% # Type of FU issued
system.cpu0.iq.FU_type_0::FloatMultAcc              0      0.00%     56.38% # Type of FU issued
system.cpu0.iq.FU_type_0::FloatDiv                  2      0.00%     56.38% # Type of FU issued
system.cpu0.iq.FU_type_0::FloatMisc                 4      0.00%     56.38% # Type of FU issued
system.cpu0.iq.FU_type_0::FloatSqrt                 0      0.00%     56.38% # Type of FU issued
system.cpu0.iq.FU_type_0::SimdAdd                   0      0.00%     56.38% # Type of FU issued
system.cpu0.iq.FU_type_0::SimdAddAcc                0      0.00%     56.38% # Type of FU issued
system.cpu0.iq.FU_type_0::SimdAlu                   0      0.00%     56.38% # Type of FU issued
system.cpu0.iq.FU_type_0::SimdCmp                   0      0.00%     56.38% # Type of FU issued
system.cpu0.iq.FU_type_0::SimdCvt                   0      0.00%     56.38% # Type of FU issued
system.cpu0.iq.FU_type_0::SimdMisc                  0      0.00%     56.38% # Type of FU issued
system.cpu0.iq.FU_type_0::SimdMult                  0      0.00%     56.38% # Type of FU issued
system.cpu0.iq.FU_type_0::SimdMultAcc               0      0.00%     56.38% # Type of FU issued
system.cpu0.iq.FU_type_0::SimdShift                 0      0.00%     56.38% # Type of FU issued
system.cpu0.iq.FU_type_0::SimdShiftAcc              0      0.00%     56.38% # Type of FU issued
system.cpu0.iq.FU_type_0::SimdDiv                   0      0.00%     56.38% # Type of FU issued
system.cpu0.iq.FU_type_0::SimdSqrt                  0      0.00%     56.38% # Type of FU issued
system.cpu0.iq.FU_type_0::SimdFloatAdd              0      0.00%     56.38% # Type of FU issued
system.cpu0.iq.FU_type_0::SimdFloatAlu              0      0.00%     56.38% # Type of FU issued
system.cpu0.iq.FU_type_0::SimdFloatCmp              0      0.00%     56.38% # Type of FU issued
system.cpu0.iq.FU_type_0::SimdFloatCvt              0      0.00%     56.38% # Type of FU issued
system.cpu0.iq.FU_type_0::SimdFloatDiv              0      0.00%     56.38% # Type of FU issued
system.cpu0.iq.FU_type_0::SimdFloatMisc             0      0.00%     56.38% # Type of FU issued
system.cpu0.iq.FU_type_0::SimdFloatMult             0      0.00%     56.38% # Type of FU issued
system.cpu0.iq.FU_type_0::SimdFloatMultAcc            0      0.00%     56.38% # Type of FU issued
system.cpu0.iq.FU_type_0::SimdFloatSqrt             0      0.00%     56.38% # Type of FU issued
system.cpu0.iq.FU_type_0::SimdReduceAdd             0      0.00%     56.38% # Type of FU issued
system.cpu0.iq.FU_type_0::SimdReduceAlu             0      0.00%     56.38% # Type of FU issued
system.cpu0.iq.FU_type_0::SimdReduceCmp             0      0.00%     56.38% # Type of FU issued
system.cpu0.iq.FU_type_0::SimdFloatReduceAdd            0      0.00%     56.38% # Type of FU issued
system.cpu0.iq.FU_type_0::SimdFloatReduceCmp            0      0.00%     56.38% # Type of FU issued
system.cpu0.iq.FU_type_0::SimdAes                   0      0.00%     56.38% # Type of FU issued
system.cpu0.iq.FU_type_0::SimdAesMix                0      0.00%     56.38% # Type of FU issued
system.cpu0.iq.FU_type_0::SimdSha1Hash              0      0.00%     56.38% # Type of FU issued
system.cpu0.iq.FU_type_0::SimdSha1Hash2             0      0.00%     56.38% # Type of FU issued
system.cpu0.iq.FU_type_0::SimdSha256Hash            0      0.00%     56.38% # Type of FU issued
system.cpu0.iq.FU_type_0::SimdSha256Hash2            0      0.00%     56.38% # Type of FU issued
system.cpu0.iq.FU_type_0::SimdShaSigma2             0      0.00%     56.38% # Type of FU issued
system.cpu0.iq.FU_type_0::SimdShaSigma3             0      0.00%     56.38% # Type of FU issued
system.cpu0.iq.FU_type_0::SimdPredAlu               0      0.00%     56.38% # Type of FU issued
system.cpu0.iq.FU_type_0::MemRead           481051216     30.80%     87.18% # Type of FU issued
system.cpu0.iq.FU_type_0::MemWrite          200229859     12.82%    100.00% # Type of FU issued
system.cpu0.iq.FU_type_0::FloatMemRead              9      0.00%    100.00% # Type of FU issued
system.cpu0.iq.FU_type_0::FloatMemWrite            20      0.00%    100.00% # Type of FU issued
system.cpu0.iq.FU_type_0::IprAccess                 0      0.00%    100.00% # Type of FU issued
system.cpu0.iq.FU_type_0::InstPrefetch              0      0.00%    100.00% # Type of FU issued
system.cpu0.iq.FU_type_0::total            1561878793                       # Type of FU issued
system.cpu0.iq.fp_alu_accesses                     55                       # Number of floating point alu accesses
system.cpu0.iq.fp_inst_queue_reads                106                       # Number of floating instruction queue reads
system.cpu0.iq.fp_inst_queue_wakeup_accesses           51                       # Number of floating instruction queue wakeup accesses
system.cpu0.iq.fp_inst_queue_writes                52                       # Number of floating instruction queue writes
system.cpu0.iq.fu_busy_cnt                    4718201                       # FU busy when requested
system.cpu0.iq.fu_busy_rate                  0.003021                       # FU busy rate (busy events/executed inst)
system.cpu0.iq.fu_full::No_OpClass                  0      0.00%      0.00% # attempts to use FU when none available
system.cpu0.iq.fu_full::IntAlu                 823628     17.46%     17.46% # attempts to use FU when none available
system.cpu0.iq.fu_full::IntMult                  1025      0.02%     17.48% # attempts to use FU when none available
system.cpu0.iq.fu_full::IntDiv                 638365     13.53%     31.01% # attempts to use FU when none available
system.cpu0.iq.fu_full::FloatAdd                    0      0.00%     31.01% # attempts to use FU when none available
system.cpu0.iq.fu_full::FloatCmp                    0      0.00%     31.01% # attempts to use FU when none available
system.cpu0.iq.fu_full::FloatCvt                    0      0.00%     31.01% # attempts to use FU when none available
system.cpu0.iq.fu_full::FloatMult                   0      0.00%     31.01% # attempts to use FU when none available
system.cpu0.iq.fu_full::FloatMultAcc                0      0.00%     31.01% # attempts to use FU when none available
system.cpu0.iq.fu_full::FloatDiv                    0      0.00%     31.01% # attempts to use FU when none available
system.cpu0.iq.fu_full::FloatMisc                   0      0.00%     31.01% # attempts to use FU when none available
system.cpu0.iq.fu_full::FloatSqrt                   0      0.00%     31.01% # attempts to use FU when none available
system.cpu0.iq.fu_full::SimdAdd                     0      0.00%     31.01% # attempts to use FU when none available
system.cpu0.iq.fu_full::SimdAddAcc                  0      0.00%     31.01% # attempts to use FU when none available
system.cpu0.iq.fu_full::SimdAlu                     0      0.00%     31.01% # attempts to use FU when none available
system.cpu0.iq.fu_full::SimdCmp                     0      0.00%     31.01% # attempts to use FU when none available
system.cpu0.iq.fu_full::SimdCvt                     0      0.00%     31.01% # attempts to use FU when none available
system.cpu0.iq.fu_full::SimdMisc                    0      0.00%     31.01% # attempts to use FU when none available
system.cpu0.iq.fu_full::SimdMult                    0      0.00%     31.01% # attempts to use FU when none available
system.cpu0.iq.fu_full::SimdMultAcc                 0      0.00%     31.01% # attempts to use FU when none available
system.cpu0.iq.fu_full::SimdShift                   0      0.00%     31.01% # attempts to use FU when none available
system.cpu0.iq.fu_full::SimdShiftAcc                0      0.00%     31.01% # attempts to use FU when none available
system.cpu0.iq.fu_full::SimdDiv                     0      0.00%     31.01% # attempts to use FU when none available
system.cpu0.iq.fu_full::SimdSqrt                    0      0.00%     31.01% # attempts to use FU when none available
system.cpu0.iq.fu_full::SimdFloatAdd                0      0.00%     31.01% # attempts to use FU when none available
system.cpu0.iq.fu_full::SimdFloatAlu                0      0.00%     31.01% # attempts to use FU when none available
system.cpu0.iq.fu_full::SimdFloatCmp                0      0.00%     31.01% # attempts to use FU when none available
system.cpu0.iq.fu_full::SimdFloatCvt                0      0.00%     31.01% # attempts to use FU when none available
system.cpu0.iq.fu_full::SimdFloatDiv                0      0.00%     31.01% # attempts to use FU when none available
system.cpu0.iq.fu_full::SimdFloatMisc               0      0.00%     31.01% # attempts to use FU when none available
system.cpu0.iq.fu_full::SimdFloatMult               0      0.00%     31.01% # attempts to use FU when none available
system.cpu0.iq.fu_full::SimdFloatMultAcc            0      0.00%     31.01% # attempts to use FU when none available
system.cpu0.iq.fu_full::SimdFloatSqrt               0      0.00%     31.01% # attempts to use FU when none available
system.cpu0.iq.fu_full::SimdReduceAdd               0      0.00%     31.01% # attempts to use FU when none available
system.cpu0.iq.fu_full::SimdReduceAlu               0      0.00%     31.01% # attempts to use FU when none available
system.cpu0.iq.fu_full::SimdReduceCmp               0      0.00%     31.01% # attempts to use FU when none available
system.cpu0.iq.fu_full::SimdFloatReduceAdd            0      0.00%     31.01% # attempts to use FU when none available
system.cpu0.iq.fu_full::SimdFloatReduceCmp            0      0.00%     31.01% # attempts to use FU when none available
system.cpu0.iq.fu_full::SimdAes                     0      0.00%     31.01% # attempts to use FU when none available
system.cpu0.iq.fu_full::SimdAesMix                  0      0.00%     31.01% # attempts to use FU when none available
system.cpu0.iq.fu_full::SimdSha1Hash                0      0.00%     31.01% # attempts to use FU when none available
system.cpu0.iq.fu_full::SimdSha1Hash2               0      0.00%     31.01% # attempts to use FU when none available
system.cpu0.iq.fu_full::SimdSha256Hash              0      0.00%     31.01% # attempts to use FU when none available
system.cpu0.iq.fu_full::SimdSha256Hash2             0      0.00%     31.01% # attempts to use FU when none available
system.cpu0.iq.fu_full::SimdShaSigma2               0      0.00%     31.01% # attempts to use FU when none available
system.cpu0.iq.fu_full::SimdShaSigma3               0      0.00%     31.01% # attempts to use FU when none available
system.cpu0.iq.fu_full::SimdPredAlu                 0      0.00%     31.01% # attempts to use FU when none available
system.cpu0.iq.fu_full::MemRead               2680421     56.81%     87.82% # attempts to use FU when none available
system.cpu0.iq.fu_full::MemWrite               574758     12.18%    100.00% # attempts to use FU when none available
system.cpu0.iq.fu_full::FloatMemRead                0      0.00%    100.00% # attempts to use FU when none available
system.cpu0.iq.fu_full::FloatMemWrite               4      0.00%    100.00% # attempts to use FU when none available
system.cpu0.iq.fu_full::IprAccess                   0      0.00%    100.00% # attempts to use FU when none available
system.cpu0.iq.fu_full::InstPrefetch                0      0.00%    100.00% # attempts to use FU when none available
system.cpu0.iq.int_alu_accesses            1562391185                       # Number of integer alu accesses
system.cpu0.iq.int_inst_queue_reads        5601664830                       # Number of integer instruction queue reads
system.cpu0.iq.int_inst_queue_wakeup_accesses   1540349477                       # Number of integer instruction queue wakeup accesses
system.cpu0.iq.int_inst_queue_writes       1738639765                       # Number of integer instruction queue writes
system.cpu0.iq.iqInstsAdded                1568148033                       # Number of instructions added to the IQ (excludes non-spec)
system.cpu0.iq.iqInstsIssued               1561878793                       # Number of instructions issued
system.cpu0.iq.iqNonSpecInstsAdded            6310366                       # Number of non-speculative instructions added to the IQ
system.cpu0.iq.iqSquashedInstsExamined      164165200                       # Number of squashed instructions iterated over during squash; mainly for profiling
system.cpu0.iq.iqSquashedInstsIssued           319706                       # Number of squashed instructions issued
system.cpu0.iq.iqSquashedNonSpecRemoved           547                       # Number of squashed non-spec instructions that were removed
system.cpu0.iq.iqSquashedOperandsExamined     36534762                       # Number of squashed operands that are examined and possibly removed from graph
system.cpu0.iq.issued_per_cycle::samples   2472869444                       # Number of insts issued each cycle
system.cpu0.iq.issued_per_cycle::mean        0.631606                       # Number of insts issued each cycle
system.cpu0.iq.issued_per_cycle::stdev       0.840835                       # Number of insts issued each cycle
system.cpu0.iq.issued_per_cycle::underflows            0      0.00%      0.00% # Number of insts issued each cycle
system.cpu0.iq.issued_per_cycle::0         1348107105     54.52%     54.52% # Number of insts issued each cycle
system.cpu0.iq.issued_per_cycle::1          784551495     31.73%     86.24% # Number of insts issued each cycle
system.cpu0.iq.issued_per_cycle::2          276381252     11.18%     97.42% # Number of insts issued each cycle
system.cpu0.iq.issued_per_cycle::3           43217813      1.75%     99.17% # Number of insts issued each cycle
system.cpu0.iq.issued_per_cycle::4           13632651      0.55%     99.72% # Number of insts issued each cycle
system.cpu0.iq.issued_per_cycle::5            2661307      0.11%     99.83% # Number of insts issued each cycle
system.cpu0.iq.issued_per_cycle::6            3405195      0.14%     99.96% # Number of insts issued each cycle
system.cpu0.iq.issued_per_cycle::7             657962      0.03%     99.99% # Number of insts issued each cycle
system.cpu0.iq.issued_per_cycle::8             254664      0.01%    100.00% # Number of insts issued each cycle
system.cpu0.iq.issued_per_cycle::overflows            0      0.00%    100.00% # Number of insts issued each cycle
system.cpu0.iq.issued_per_cycle::min_value            0                       # Number of insts issued each cycle
system.cpu0.iq.issued_per_cycle::max_value            8                       # Number of insts issued each cycle
system.cpu0.iq.issued_per_cycle::total     2472869444                       # Number of insts issued each cycle
system.cpu0.iq.rate                          0.542834                       # Inst issue rate
system.cpu0.iq.vec_alu_accesses                     0                       # Number of vector alu accesses
system.cpu0.iq.vec_inst_queue_reads                 0                       # Number of vector instruction queue reads
system.cpu0.iq.vec_inst_queue_wakeup_accesses            0                       # Number of vector instruction queue wakeup accesses
system.cpu0.iq.vec_inst_queue_writes                0                       # Number of vector instruction queue writes
system.cpu0.itb.accesses                            0                       # DTB accesses
system.cpu0.itb.hits                                0                       # DTB hits
system.cpu0.itb.misses                              0                       # DTB misses
system.cpu0.itb.read_accesses                       0                       # DTB read accesses
system.cpu0.itb.read_hits                           0                       # DTB read hits
system.cpu0.itb.read_misses                         0                       # DTB read misses
system.cpu0.itb.write_accesses                      0                       # DTB write accesses
system.cpu0.itb.write_hits                          0                       # DTB write hits
system.cpu0.itb.write_misses                        0                       # DTB write misses
system.cpu0.memDep0.conflictingLoads         21044132                       # Number of conflicting loads.
system.cpu0.memDep0.conflictingStores        11487608                       # Number of conflicting stores.
system.cpu0.memDep0.insertedLoads           476893680                       # Number of loads inserted to the mem dependence unit.
system.cpu0.memDep0.insertedStores          207382014                       # Number of stores inserted to the mem dependence unit.
system.cpu0.misc_regfile_reads                   1901                       # number of misc regfile reads
system.cpu0.misc_regfile_writes                    22                       # number of misc regfile writes
system.cpu0.numCycles                      2877266447                       # number of cpu cycles simulated
system.cpu0.numWorkItemsCompleted                   0                       # number of work items this cpu completed
system.cpu0.numWorkItemsStarted                     0                       # number of work items this cpu started
system.cpu0.quiesceCycles                     9712067                       # Total number of cycles that CPU has spent quiesced or waiting for an interrupt
system.cpu0.rename.BlockCycles              417008110                       # Number of cycles rename is blocking
system.cpu0.rename.CommittedMaps            911016057                       # Number of HB maps that are committed
system.cpu0.rename.IQFullEvents              15499013                       # Number of times rename has blocked due to IQ full
system.cpu0.rename.IdleCycles               865935488                       # Number of cycles rename is idle
system.cpu0.rename.LQFullEvents              28294979                       # Number of times rename has blocked due to LQ full
system.cpu0.rename.ROBFullEvents                61896                       # Number of times rename has blocked due to ROB full
system.cpu0.rename.RenameLookups           1967585624                       # Number of register rename lookups that rename has made
system.cpu0.rename.RenamedInsts            1590130712                       # Number of instructions processed by rename
system.cpu0.rename.RenamedOperands         1027662917                       # Number of destination operands rename has renamed
system.cpu0.rename.RunCycles               1112396984                       # Number of cycles rename is running
system.cpu0.rename.SQFullEvents              23438858                       # Number of times rename has blocked due to SQ full
system.cpu0.rename.SquashCycles               9303926                       # Number of cycles rename is squashing
system.cpu0.rename.UnblockCycles             68069164                       # Number of cycles rename is unblocking
system.cpu0.rename.UndoneMaps               116646793                       # Number of HB maps that are undone due to squashing
system.cpu0.rename.fp_rename_lookups               44                       # Number of floating rename lookups
system.cpu0.rename.int_rename_lookups      1967585580                       # Number of integer rename lookups
system.cpu0.rename.serializeStallCycles        155772                       # count of cycles rename stalled for serializing inst
system.cpu0.rename.serializingInsts              5973                       # count of serializing insts renamed
system.cpu0.rename.skidInsts                 35451134                       # count of insts added to the skid buffer
system.cpu0.rename.tempSerializingInsts          5960                       # count of temporary serializing insts renamed
system.cpu0.rob.rob_reads                  3974447056                       # The number of ROB reads
system.cpu0.rob.rob_writes                 3176196868                       # The number of ROB writes
system.cpu0.timesIdled                       25778527                       # Number of times that the entire CPU went into an idle state and unscheduled itself
system.cpu0.workload.numSyscalls                 1868                       # Number of system calls
system.cpu1.branchPred.BTBCorrect                   0                       # Number of correct BTB predictions (this stat may not work properly.
system.cpu1.branchPred.BTBHitPct            80.509616                       # BTB Hit Percentage
system.cpu1.branchPred.BTBHits               24362890                       # Number of BTB hits
system.cpu1.branchPred.BTBLookups            30260845                       # Number of BTB lookups
system.cpu1.branchPred.RASInCorrect                 0                       # Number of incorrect RAS predictions.
system.cpu1.branchPred.condIncorrect          2831975                       # Number of conditional branches incorrect
system.cpu1.branchPred.condPredicted         32508471                       # Number of conditional branches predicted
system.cpu1.branchPred.indirectHits           2129767                       # Number of indirect target hits.
system.cpu1.branchPred.indirectLookups        2139361                       # Number of indirect predictor lookups.
system.cpu1.branchPred.indirectMisses            9594                       # Number of indirect misses.
system.cpu1.branchPred.lookups               41159705                       # Number of BP lookups
system.cpu1.branchPred.usedRAS                      0                       # Number of times the RAS was used to get a target.
system.cpu1.branchPredindirectMispredicted       148610                       # Number of mispredicted indirect branches.
system.cpu1.commit.amos                       2100004                       # Number of atomic instructions committed
system.cpu1.commit.branchMispredicts          1912987                       # The number of times a branch was mispredicted
system.cpu1.commit.branches                  34322333                       # Number of branches committed
system.cpu1.commit.bw_lim_events              5837303                       # number cycles where commit BW limit reached
system.cpu1.commit.commitNonSpecStalls        6300703                       # The number of times commit has been forced to stall to communicate backwards
system.cpu1.commit.commitSquashedInsts       16002524                       # The number of squashed insts skipped by commit
system.cpu1.commit.committedInsts           158057772                       # Number of instructions committed
system.cpu1.commit.committedOps             160157957                       # Number of ops (including micro ops) committed
system.cpu1.commit.committed_per_cycle::samples    514315493                       # Number of insts commited each cycle
system.cpu1.commit.committed_per_cycle::mean     0.311400                       # Number of insts commited each cycle
system.cpu1.commit.committed_per_cycle::stdev     1.114161                       # Number of insts commited each cycle
system.cpu1.commit.committed_per_cycle::underflows            0      0.00%      0.00% # Number of insts commited each cycle
system.cpu1.commit.committed_per_cycle::0    447793513     87.07%     87.07% # Number of insts commited each cycle
system.cpu1.commit.committed_per_cycle::1     34161534      6.64%     93.71% # Number of insts commited each cycle
system.cpu1.commit.committed_per_cycle::2     13275640      2.58%     96.29% # Number of insts commited each cycle
system.cpu1.commit.committed_per_cycle::3      6217007      1.21%     97.50% # Number of insts commited each cycle
system.cpu1.commit.committed_per_cycle::4      3151983      0.61%     98.11% # Number of insts commited each cycle
system.cpu1.commit.committed_per_cycle::5      2320839      0.45%     98.56% # Number of insts commited each cycle
system.cpu1.commit.committed_per_cycle::6      1020147      0.20%     98.76% # Number of insts commited each cycle
system.cpu1.commit.committed_per_cycle::7       537527      0.10%     98.87% # Number of insts commited each cycle
system.cpu1.commit.committed_per_cycle::8      5837303      1.13%    100.00% # Number of insts commited each cycle
system.cpu1.commit.committed_per_cycle::overflows            0      0.00%    100.00% # Number of insts commited each cycle
system.cpu1.commit.committed_per_cycle::min_value            0                       # Number of insts commited each cycle
system.cpu1.commit.committed_per_cycle::max_value            8                       # Number of insts commited each cycle
system.cpu1.commit.committed_per_cycle::total    514315493                       # Number of insts commited each cycle
system.cpu1.commit.fp_insts                        12                       # Number of committed floating point instructions.
system.cpu1.commit.function_calls             3698493                       # Number of function calls committed.
system.cpu1.commit.int_insts                152850806                       # Number of committed integer instructions.
system.cpu1.commit.loads                     38898893                       # Number of loads committed
system.cpu1.commit.membars                    4200133                       # Number of memory barriers committed
system.cpu1.commit.op_class_0::No_OpClass      4200133      2.62%      2.62% # Class of committed instruction
system.cpu1.commit.op_class_0::IntAlu        98370667     61.42%     64.04% # Class of committed instruction
system.cpu1.commit.op_class_0::IntMult         265371      0.17%     64.21% # Class of committed instruction
system.cpu1.commit.op_class_0::IntDiv          526963      0.33%     64.54% # Class of committed instruction
system.cpu1.commit.op_class_0::FloatAdd             0      0.00%     64.54% # Class of committed instruction
system.cpu1.commit.op_class_0::FloatCmp             0      0.00%     64.54% # Class of committed instruction
system.cpu1.commit.op_class_0::FloatCvt             0      0.00%     64.54% # Class of committed instruction
system.cpu1.commit.op_class_0::FloatMult            0      0.00%     64.54% # Class of committed instruction
system.cpu1.commit.op_class_0::FloatMultAcc            0      0.00%     64.54% # Class of committed instruction
system.cpu1.commit.op_class_0::FloatDiv             0      0.00%     64.54% # Class of committed instruction
system.cpu1.commit.op_class_0::FloatMisc            0      0.00%     64.54% # Class of committed instruction
system.cpu1.commit.op_class_0::FloatSqrt            0      0.00%     64.54% # Class of committed instruction
system.cpu1.commit.op_class_0::SimdAdd              0      0.00%     64.54% # Class of committed instruction
system.cpu1.commit.op_class_0::SimdAddAcc            0      0.00%     64.54% # Class of committed instruction
system.cpu1.commit.op_class_0::SimdAlu              0      0.00%     64.54% # Class of committed instruction
system.cpu1.commit.op_class_0::SimdCmp              0      0.00%     64.54% # Class of committed instruction
system.cpu1.commit.op_class_0::SimdCvt              0      0.00%     64.54% # Class of committed instruction
system.cpu1.commit.op_class_0::SimdMisc             0      0.00%     64.54% # Class of committed instruction
system.cpu1.commit.op_class_0::SimdMult             0      0.00%     64.54% # Class of committed instruction
system.cpu1.commit.op_class_0::SimdMultAcc            0      0.00%     64.54% # Class of committed instruction
system.cpu1.commit.op_class_0::SimdShift            0      0.00%     64.54% # Class of committed instruction
system.cpu1.commit.op_class_0::SimdShiftAcc            0      0.00%     64.54% # Class of committed instruction
system.cpu1.commit.op_class_0::SimdDiv              0      0.00%     64.54% # Class of committed instruction
system.cpu1.commit.op_class_0::SimdSqrt             0      0.00%     64.54% # Class of committed instruction
system.cpu1.commit.op_class_0::SimdFloatAdd            0      0.00%     64.54% # Class of committed instruction
system.cpu1.commit.op_class_0::SimdFloatAlu            0      0.00%     64.54% # Class of committed instruction
system.cpu1.commit.op_class_0::SimdFloatCmp            0      0.00%     64.54% # Class of committed instruction
system.cpu1.commit.op_class_0::SimdFloatCvt            0      0.00%     64.54% # Class of committed instruction
system.cpu1.commit.op_class_0::SimdFloatDiv            0      0.00%     64.54% # Class of committed instruction
system.cpu1.commit.op_class_0::SimdFloatMisc            0      0.00%     64.54% # Class of committed instruction
system.cpu1.commit.op_class_0::SimdFloatMult            0      0.00%     64.54% # Class of committed instruction
system.cpu1.commit.op_class_0::SimdFloatMultAcc            0      0.00%     64.54% # Class of committed instruction
system.cpu1.commit.op_class_0::SimdFloatSqrt            0      0.00%     64.54% # Class of committed instruction
system.cpu1.commit.op_class_0::SimdReduceAdd            0      0.00%     64.54% # Class of committed instruction
system.cpu1.commit.op_class_0::SimdReduceAlu            0      0.00%     64.54% # Class of committed instruction
system.cpu1.commit.op_class_0::SimdReduceCmp            0      0.00%     64.54% # Class of committed instruction
system.cpu1.commit.op_class_0::SimdFloatReduceAdd            0      0.00%     64.54% # Class of committed instruction
system.cpu1.commit.op_class_0::SimdFloatReduceCmp            0      0.00%     64.54% # Class of committed instruction
system.cpu1.commit.op_class_0::SimdAes              0      0.00%     64.54% # Class of committed instruction
system.cpu1.commit.op_class_0::SimdAesMix            0      0.00%     64.54% # Class of committed instruction
system.cpu1.commit.op_class_0::SimdSha1Hash            0      0.00%     64.54% # Class of committed instruction
system.cpu1.commit.op_class_0::SimdSha1Hash2            0      0.00%     64.54% # Class of committed instruction
system.cpu1.commit.op_class_0::SimdSha256Hash            0      0.00%     64.54% # Class of committed instruction
system.cpu1.commit.op_class_0::SimdSha256Hash2            0      0.00%     64.54% # Class of committed instruction
system.cpu1.commit.op_class_0::SimdShaSigma2            0      0.00%     64.54% # Class of committed instruction
system.cpu1.commit.op_class_0::SimdShaSigma3            0      0.00%     64.54% # Class of committed instruction
system.cpu1.commit.op_class_0::SimdPredAlu            0      0.00%     64.54% # Class of committed instruction
system.cpu1.commit.op_class_0::MemRead       40998897     25.60%     90.14% # Class of committed instruction
system.cpu1.commit.op_class_0::MemWrite      15795914      9.86%    100.00% # Class of committed instruction
system.cpu1.commit.op_class_0::FloatMemRead            0      0.00%    100.00% # Class of committed instruction
system.cpu1.commit.op_class_0::FloatMemWrite           12      0.00%    100.00% # Class of committed instruction
system.cpu1.commit.op_class_0::IprAccess            0      0.00%    100.00% # Class of committed instruction
system.cpu1.commit.op_class_0::InstPrefetch            0      0.00%    100.00% # Class of committed instruction
system.cpu1.commit.op_class_0::total        160157957                       # Class of committed instruction
system.cpu1.commit.refs                      56794823                       # Number of memory references committed
system.cpu1.commit.swp_count                        0                       # Number of s/w prefetches committed
system.cpu1.commit.vec_insts                        0                       # Number of committed Vector instructions.
system.cpu1.committedInsts                  158057772                       # Number of Instructions Simulated
system.cpu1.committedOps                    160157957                       # Number of Ops (including micro ops) Simulated
system.cpu1.cpi                              3.325000                       # CPI: Cycles Per Instruction
system.cpu1.cpi_total                        3.325000                       # CPI: Total CPI of All Threads
system.cpu1.decode.BlockedCycles            375539043                       # Number of cycles decode is blocked
system.cpu1.decode.BranchMispred               934945                       # Number of times decode detected a branch misprediction
system.cpu1.decode.BranchResolved            23028868                       # Number of times decode resolved a branch
system.cpu1.decode.DecodedInsts             183255249                       # Number of instructions handled by decode
system.cpu1.decode.IdleCycles                42113779                       # Number of cycles decode is idle
system.cpu1.decode.RunCycles                 92788987                       # Number of cycles decode is running
system.cpu1.decode.SquashCycles               1914169                       # Number of cycles decode is squashing
system.cpu1.decode.SquashedInsts              2273296                       # Number of squashed instructions handled by decode
system.cpu1.decode.UnblockCycles              5354612                       # Number of cycles decode is unblocking
system.cpu1.dtb.accesses                            0                       # DTB accesses
system.cpu1.dtb.hits                                0                       # DTB hits
system.cpu1.dtb.misses                              0                       # DTB misses
system.cpu1.dtb.read_accesses                       0                       # DTB read accesses
system.cpu1.dtb.read_hits                           0                       # DTB read hits
system.cpu1.dtb.read_misses                         0                       # DTB read misses
system.cpu1.dtb.write_accesses                      0                       # DTB write accesses
system.cpu1.dtb.write_hits                          0                       # DTB write hits
system.cpu1.dtb.write_misses                        0                       # DTB write misses
system.cpu1.fetch.Branches                   41159705                       # Number of branches that fetch encountered
system.cpu1.fetch.CacheLines                 32543178                       # Number of cache lines fetched
system.cpu1.fetch.Cycles                    470679932                       # Number of cycles fetch has run and was not squashing or blocked
system.cpu1.fetch.IcacheSquashes               770655                       # Number of outstanding Icache misses that were squashed
system.cpu1.fetch.Insts                     189264596                       # Number of instructions fetch has processed
system.cpu1.fetch.MiscStallCycles                   1                       # Number of cycles fetch has spent waiting on interrupts, or bad addresses, or out of MSHRs
system.cpu1.fetch.SquashCycles                5666314                       # Number of cycles fetch has spent squashing
system.cpu1.fetch.branchRate                 0.078319                       # Number of branch fetches per cycle
system.cpu1.fetch.icacheStallCycles          44197500                       # Number of cycles fetch is stalled on an Icache miss
system.cpu1.fetch.predictedBranches          26492657                       # Number of branches that fetch has predicted taken
system.cpu1.fetch.rate                       0.360132                       # Number of inst fetches per cycle
system.cpu1.fetch.rateDist::samples         517710590                       # Number of instructions fetched each cycle (Total)
system.cpu1.fetch.rateDist::mean             0.369637                       # Number of instructions fetched each cycle (Total)
system.cpu1.fetch.rateDist::stdev            0.791063                       # Number of instructions fetched each cycle (Total)
system.cpu1.fetch.rateDist::underflows              0      0.00%      0.00% # Number of instructions fetched each cycle (Total)
system.cpu1.fetch.rateDist::0               391371818     75.60%     75.60% # Number of instructions fetched each cycle (Total)
system.cpu1.fetch.rateDist::1                85184513     16.45%     92.05% # Number of instructions fetched each cycle (Total)
system.cpu1.fetch.rateDist::2                25855267      4.99%     97.04% # Number of instructions fetched each cycle (Total)
system.cpu1.fetch.rateDist::3                10229687      1.98%     99.02% # Number of instructions fetched each cycle (Total)
system.cpu1.fetch.rateDist::4                 2261294      0.44%     99.46% # Number of instructions fetched each cycle (Total)
system.cpu1.fetch.rateDist::5                 2112910      0.41%     99.87% # Number of instructions fetched each cycle (Total)
system.cpu1.fetch.rateDist::6                  694666      0.13%    100.00% # Number of instructions fetched each cycle (Total)
system.cpu1.fetch.rateDist::7                     194      0.00%    100.00% # Number of instructions fetched each cycle (Total)
system.cpu1.fetch.rateDist::8                     241      0.00%    100.00% # Number of instructions fetched each cycle (Total)
system.cpu1.fetch.rateDist::overflows               0      0.00%    100.00% # Number of instructions fetched each cycle (Total)
system.cpu1.fetch.rateDist::min_value               0                       # Number of instructions fetched each cycle (Total)
system.cpu1.fetch.rateDist::max_value               8                       # Number of instructions fetched each cycle (Total)
system.cpu1.fetch.rateDist::total           517710590                       # Number of instructions fetched each cycle (Total)
system.cpu1.fp_regfile_reads                       12                       # number of floating regfile reads
system.cpu1.idleCycles                        7831554                       # Total number of cycles that the CPU has spent unscheduled due to idling
system.cpu1.iew.branchMispredicts             1983438                       # Number of branch mispredicts detected at execute
system.cpu1.iew.exec_branches                36750644                       # Number of branches executed
system.cpu1.iew.exec_nop                            0                       # number of nop insts executed
system.cpu1.iew.exec_rate                    0.326152                       # Inst execution rate
system.cpu1.iew.exec_refs                    60935393                       # number of memory reference insts executed
system.cpu1.iew.exec_stores                  18473804                       # Number of stores executed
system.cpu1.iew.exec_swp                            0                       # number of swp insts executed
system.cpu1.iew.iewBlockCycles              304679581                       # Number of cycles IEW is blocking
system.cpu1.iew.iewDispLoadInsts             43248906                       # Number of dispatched load instructions
system.cpu1.iew.iewDispNonSpecInsts           2100703                       # Number of dispatched non-speculative instructions
system.cpu1.iew.iewDispSquashedInsts          1778817                       # Number of squashed instructions skipped by dispatch
system.cpu1.iew.iewDispStoreInsts            18950326                       # Number of dispatched store instructions
system.cpu1.iew.iewDispatchedInsts          176117103                       # Number of instructions dispatched to IQ
system.cpu1.iew.iewExecLoadInsts             42461589                       # Number of load instructions executed
system.cpu1.iew.iewExecSquashedInsts          1625199                       # Number of squashed instructions skipped in execute
system.cpu1.iew.iewExecutedInsts            171406432                       # Number of executed instructions
system.cpu1.iew.iewIQFullEvents               1119283                       # Number of times the IQ has become full, causing a stall
system.cpu1.iew.iewIdleCycles                       0                       # Number of cycles IEW is idle
system.cpu1.iew.iewLSQFullEvents             11098018                       # Number of times the LSQ has become full, causing a stall
system.cpu1.iew.iewSquashCycles               1914169                       # Number of cycles IEW is squashing
system.cpu1.iew.iewUnblockCycles             15022765                       # Number of cycles IEW is unblocking
system.cpu1.iew.lsq.thread0.blockedLoads            0                       # Number of blocked loads due to partial load-store forwarding
system.cpu1.iew.lsq.thread0.cacheBlocked        75329                       # Number of times an access to memory failed due to the cache being blocked
system.cpu1.iew.lsq.thread0.forwLoads         1240261                       # Number of loads that had data forwarded from stores
system.cpu1.iew.lsq.thread0.ignoredResponses        25861                       # Number of memory responses ignored because the instruction is squashed
system.cpu1.iew.lsq.thread0.invAddrLoads            0                       # Number of loads ignored due to an invalid address
system.cpu1.iew.lsq.thread0.invAddrSwpfs            0                       # Number of software prefetches ignored due to an invalid address
system.cpu1.iew.lsq.thread0.memOrderViolation         1590                       # Number of memory ordering violations
system.cpu1.iew.lsq.thread0.rescheduledLoads         5670                       # Number of loads that were rescheduled
system.cpu1.iew.lsq.thread0.squashedLoads      4350013                       # Number of loads squashed
system.cpu1.iew.lsq.thread0.squashedStores      1054396                       # Number of stores squashed
system.cpu1.iew.memOrderViolationEvents          1590                       # Number of memory order violations
system.cpu1.iew.predictedNotTakenIncorrect       404687                       # Number of branches that were predicted not taken incorrectly
system.cpu1.iew.predictedTakenIncorrect       1578751                       # Number of branches that were predicted taken incorrectly
system.cpu1.iew.wb_consumers                 92022415                       # num instructions consuming a value
system.cpu1.iew.wb_count                    170267744                       # cumulative count of insts written-back
system.cpu1.iew.wb_fanout                    0.828317                       # average fanout of values written-back
system.cpu1.iew.wb_producers                 76223764                       # num instructions producing a value
system.cpu1.iew.wb_rate                      0.323985                       # insts written-back per cycle
system.cpu1.iew.wb_sent                     170325865                       # cumulative count of insts sent to commit
system.cpu1.int_regfile_reads               216684713                       # number of integer regfile reads
system.cpu1.int_regfile_writes              114881395                       # number of integer regfile writes
system.cpu1.ipc                              0.300752                       # IPC: Instructions Per Cycle
system.cpu1.ipc_total                        0.300752                       # IPC: Total IPC of All Threads
system.cpu1.iq.FU_type_0::No_OpClass          4200240      2.43%      2.43% # Type of FU issued
system.cpu1.iq.FU_type_0::IntAlu            106358850     61.47%     63.90% # Type of FU issued
system.cpu1.iq.FU_type_0::IntMult              265405      0.15%     64.05% # Type of FU issued
system.cpu1.iq.FU_type_0::IntDiv               527041      0.30%     64.35% # Type of FU issued
system.cpu1.iq.FU_type_0::FloatAdd                  0      0.00%     64.35% # Type of FU issued
system.cpu1.iq.FU_type_0::FloatCmp                  0      0.00%     64.35% # Type of FU issued
system.cpu1.iq.FU_type_0::FloatCvt                  0      0.00%     64.35% # Type of FU issued
system.cpu1.iq.FU_type_0::FloatMult                 0      0.00%     64.35% # Type of FU issued
system.cpu1.iq.FU_type_0::FloatMultAcc              0      0.00%     64.35% # Type of FU issued
system.cpu1.iq.FU_type_0::FloatDiv                  0      0.00%     64.35% # Type of FU issued
system.cpu1.iq.FU_type_0::FloatMisc                 0      0.00%     64.35% # Type of FU issued
system.cpu1.iq.FU_type_0::FloatSqrt                 0      0.00%     64.35% # Type of FU issued
system.cpu1.iq.FU_type_0::SimdAdd                   0      0.00%     64.35% # Type of FU issued
system.cpu1.iq.FU_type_0::SimdAddAcc                0      0.00%     64.35% # Type of FU issued
system.cpu1.iq.FU_type_0::SimdAlu                   0      0.00%     64.35% # Type of FU issued
system.cpu1.iq.FU_type_0::SimdCmp                   0      0.00%     64.35% # Type of FU issued
system.cpu1.iq.FU_type_0::SimdCvt                   0      0.00%     64.35% # Type of FU issued
system.cpu1.iq.FU_type_0::SimdMisc                  0      0.00%     64.35% # Type of FU issued
system.cpu1.iq.FU_type_0::SimdMult                  0      0.00%     64.35% # Type of FU issued
system.cpu1.iq.FU_type_0::SimdMultAcc               0      0.00%     64.35% # Type of FU issued
system.cpu1.iq.FU_type_0::SimdShift                 0      0.00%     64.35% # Type of FU issued
system.cpu1.iq.FU_type_0::SimdShiftAcc              0      0.00%     64.35% # Type of FU issued
system.cpu1.iq.FU_type_0::SimdDiv                   0      0.00%     64.35% # Type of FU issued
system.cpu1.iq.FU_type_0::SimdSqrt                  0      0.00%     64.35% # Type of FU issued
system.cpu1.iq.FU_type_0::SimdFloatAdd              0      0.00%     64.35% # Type of FU issued
system.cpu1.iq.FU_type_0::SimdFloatAlu              0      0.00%     64.35% # Type of FU issued
system.cpu1.iq.FU_type_0::SimdFloatCmp              0      0.00%     64.35% # Type of FU issued
system.cpu1.iq.FU_type_0::SimdFloatCvt              0      0.00%     64.35% # Type of FU issued
system.cpu1.iq.FU_type_0::SimdFloatDiv              0      0.00%     64.35% # Type of FU issued
system.cpu1.iq.FU_type_0::SimdFloatMisc             0      0.00%     64.35% # Type of FU issued
system.cpu1.iq.FU_type_0::SimdFloatMult             0      0.00%     64.35% # Type of FU issued
system.cpu1.iq.FU_type_0::SimdFloatMultAcc            0      0.00%     64.35% # Type of FU issued
system.cpu1.iq.FU_type_0::SimdFloatSqrt             0      0.00%     64.35% # Type of FU issued
system.cpu1.iq.FU_type_0::SimdReduceAdd             0      0.00%     64.35% # Type of FU issued
system.cpu1.iq.FU_type_0::SimdReduceAlu             0      0.00%     64.35% # Type of FU issued
system.cpu1.iq.FU_type_0::SimdReduceCmp             0      0.00%     64.35% # Type of FU issued
system.cpu1.iq.FU_type_0::SimdFloatReduceAdd            0      0.00%     64.35% # Type of FU issued
system.cpu1.iq.FU_type_0::SimdFloatReduceCmp            0      0.00%     64.35% # Type of FU issued
system.cpu1.iq.FU_type_0::SimdAes                   0      0.00%     64.35% # Type of FU issued
system.cpu1.iq.FU_type_0::SimdAesMix                0      0.00%     64.35% # Type of FU issued
system.cpu1.iq.FU_type_0::SimdSha1Hash              0      0.00%     64.35% # Type of FU issued
system.cpu1.iq.FU_type_0::SimdSha1Hash2             0      0.00%     64.35% # Type of FU issued
system.cpu1.iq.FU_type_0::SimdSha256Hash            0      0.00%     64.35% # Type of FU issued
system.cpu1.iq.FU_type_0::SimdSha256Hash2            0      0.00%     64.35% # Type of FU issued
system.cpu1.iq.FU_type_0::SimdShaSigma2             0      0.00%     64.35% # Type of FU issued
system.cpu1.iq.FU_type_0::SimdShaSigma3             0      0.00%     64.35% # Type of FU issued
system.cpu1.iq.FU_type_0::SimdPredAlu               0      0.00%     64.35% # Type of FU issued
system.cpu1.iq.FU_type_0::MemRead            45220988     26.13%     90.49% # Type of FU issued
system.cpu1.iq.FU_type_0::MemWrite           16459095      9.51%    100.00% # Type of FU issued
system.cpu1.iq.FU_type_0::FloatMemRead              0      0.00%    100.00% # Type of FU issued
system.cpu1.iq.FU_type_0::FloatMemWrite            12      0.00%    100.00% # Type of FU issued
system.cpu1.iq.FU_type_0::IprAccess                 0      0.00%    100.00% # Type of FU issued
system.cpu1.iq.FU_type_0::InstPrefetch              0      0.00%    100.00% # Type of FU issued
system.cpu1.iq.FU_type_0::total             173031631                       # Type of FU issued
system.cpu1.iq.fp_alu_accesses                     16                       # Number of floating point alu accesses
system.cpu1.iq.fp_inst_queue_reads                 28                       # Number of floating instruction queue reads
system.cpu1.iq.fp_inst_queue_wakeup_accesses           12                       # Number of floating instruction queue wakeup accesses
system.cpu1.iq.fp_inst_queue_writes                12                       # Number of floating instruction queue writes
system.cpu1.iq.fu_busy_cnt                    3819884                       # FU busy when requested
system.cpu1.iq.fu_busy_rate                  0.022076                       # FU busy rate (busy events/executed inst)
system.cpu1.iq.fu_full::No_OpClass                  0      0.00%      0.00% # attempts to use FU when none available
system.cpu1.iq.fu_full::IntAlu                 567072     14.85%     14.85% # attempts to use FU when none available
system.cpu1.iq.fu_full::IntMult                  1511      0.04%     14.88% # attempts to use FU when none available
system.cpu1.iq.fu_full::IntDiv                 262412      6.87%     21.75% # attempts to use FU when none available
system.cpu1.iq.fu_full::FloatAdd                    0      0.00%     21.75% # attempts to use FU when none available
system.cpu1.iq.fu_full::FloatCmp                    0      0.00%     21.75% # attempts to use FU when none available
system.cpu1.iq.fu_full::FloatCvt                    0      0.00%     21.75% # attempts to use FU when none available
system.cpu1.iq.fu_full::FloatMult                   0      0.00%     21.75% # attempts to use FU when none available
system.cpu1.iq.fu_full::FloatMultAcc                0      0.00%     21.75% # attempts to use FU when none available
system.cpu1.iq.fu_full::FloatDiv                    0      0.00%     21.75% # attempts to use FU when none available
system.cpu1.iq.fu_full::FloatMisc                   0      0.00%     21.75% # attempts to use FU when none available
system.cpu1.iq.fu_full::FloatSqrt                   0      0.00%     21.75% # attempts to use FU when none available
system.cpu1.iq.fu_full::SimdAdd                     0      0.00%     21.75% # attempts to use FU when none available
system.cpu1.iq.fu_full::SimdAddAcc                  0      0.00%     21.75% # attempts to use FU when none available
system.cpu1.iq.fu_full::SimdAlu                     0      0.00%     21.75% # attempts to use FU when none available
system.cpu1.iq.fu_full::SimdCmp                     0      0.00%     21.75% # attempts to use FU when none available
system.cpu1.iq.fu_full::SimdCvt                     0      0.00%     21.75% # attempts to use FU when none available
system.cpu1.iq.fu_full::SimdMisc                    0      0.00%     21.75% # attempts to use FU when none available
system.cpu1.iq.fu_full::SimdMult                    0      0.00%     21.75% # attempts to use FU when none available
system.cpu1.iq.fu_full::SimdMultAcc                 0      0.00%     21.75% # attempts to use FU when none available
system.cpu1.iq.fu_full::SimdShift                   0      0.00%     21.75% # attempts to use FU when none available
system.cpu1.iq.fu_full::SimdShiftAcc                0      0.00%     21.75% # attempts to use FU when none available
system.cpu1.iq.fu_full::SimdDiv                     0      0.00%     21.75% # attempts to use FU when none available
system.cpu1.iq.fu_full::SimdSqrt                    0      0.00%     21.75% # attempts to use FU when none available
system.cpu1.iq.fu_full::SimdFloatAdd                0      0.00%     21.75% # attempts to use FU when none available
system.cpu1.iq.fu_full::SimdFloatAlu                0      0.00%     21.75% # attempts to use FU when none available
system.cpu1.iq.fu_full::SimdFloatCmp                0      0.00%     21.75% # attempts to use FU when none available
system.cpu1.iq.fu_full::SimdFloatCvt                0      0.00%     21.75% # attempts to use FU when none available
system.cpu1.iq.fu_full::SimdFloatDiv                0      0.00%     21.75% # attempts to use FU when none available
system.cpu1.iq.fu_full::SimdFloatMisc               0      0.00%     21.75% # attempts to use FU when none available
system.cpu1.iq.fu_full::SimdFloatMult               0      0.00%     21.75% # attempts to use FU when none available
system.cpu1.iq.fu_full::SimdFloatMultAcc            0      0.00%     21.75% # attempts to use FU when none available
system.cpu1.iq.fu_full::SimdFloatSqrt               0      0.00%     21.75% # attempts to use FU when none available
system.cpu1.iq.fu_full::SimdReduceAdd               0      0.00%     21.75% # attempts to use FU when none available
system.cpu1.iq.fu_full::SimdReduceAlu               0      0.00%     21.75% # attempts to use FU when none available
system.cpu1.iq.fu_full::SimdReduceCmp               0      0.00%     21.75% # attempts to use FU when none available
system.cpu1.iq.fu_full::SimdFloatReduceAdd            0      0.00%     21.75% # attempts to use FU when none available
system.cpu1.iq.fu_full::SimdFloatReduceCmp            0      0.00%     21.75% # attempts to use FU when none available
system.cpu1.iq.fu_full::SimdAes                     0      0.00%     21.75% # attempts to use FU when none available
system.cpu1.iq.fu_full::SimdAesMix                  0      0.00%     21.75% # attempts to use FU when none available
system.cpu1.iq.fu_full::SimdSha1Hash                0      0.00%     21.75% # attempts to use FU when none available
system.cpu1.iq.fu_full::SimdSha1Hash2               0      0.00%     21.75% # attempts to use FU when none available
system.cpu1.iq.fu_full::SimdSha256Hash              0      0.00%     21.75% # attempts to use FU when none available
system.cpu1.iq.fu_full::SimdSha256Hash2             0      0.00%     21.75% # attempts to use FU when none available
system.cpu1.iq.fu_full::SimdShaSigma2               0      0.00%     21.75% # attempts to use FU when none available
system.cpu1.iq.fu_full::SimdShaSigma3               0      0.00%     21.75% # attempts to use FU when none available
system.cpu1.iq.fu_full::SimdPredAlu                 0      0.00%     21.75% # attempts to use FU when none available
system.cpu1.iq.fu_full::MemRead               2472714     64.73%     86.49% # attempts to use FU when none available
system.cpu1.iq.fu_full::MemWrite               516171     13.51%    100.00% # attempts to use FU when none available
[...]
system.cpu1.dcache.WriteReq_misses::.cpu1.data      2477275                       # number of WriteReq misses
system.cpu1.dcache.WriteReq_misses::total      2477275                       # number of WriteReq misses
system.cpu1.dcache.WriteReq_miss_latency::.cpu1.data 146919604538                       # number of WriteReq miss cycles
system.cpu1.dcache.WriteReq_miss_latency::total 146919604538                       # number of WriteReq miss cycles
system.cpu1.dcache.WriteReq_accesses::.cpu1.data      6019731                       # number of WriteReq accesses(hits+misses)
system.cpu1.dcache.WriteReq_accesses::total      6019731                       # number of WriteReq accesses(hits+misses)
system.cpu1.dcache.WriteReq_miss_rate::.cpu1.data     0.411526                       # miss rate for WriteReq accesses
system.cpu1.dcache.WriteReq_miss_rate::total     0.411526                       # miss rate for WriteReq accesses
system.cpu1.dcache.WriteReq_avg_miss_latency::.cpu1.data 59306.941917                       # average WriteReq miss latency
system.cpu1.dcache.WriteReq_avg_miss_latency::total 59306.941917                       # average WriteReq miss latency
system.cpu1.dcache.WriteReq_mshr_hits::.cpu1.data      2016047                       # number of WriteReq MSHR hits
system.cpu1.dcache.WriteReq_mshr_hits::total      2016047                       # number of WriteReq MSHR hits
system.cpu1.dcache.WriteReq_mshr_misses::.cpu1.data       461228                       # number of WriteReq MSHR misses
system.cpu1.dcache.WriteReq_mshr_misses::total       461228                       # number of WriteReq MSHR misses
system.cpu1.dcache.WriteReq_mshr_miss_latency::.cpu1.data  27816211862                       # number of WriteReq MSHR miss cycles
system.cpu1.dcache.WriteReq_mshr_miss_latency::total  27816211862                       # number of WriteReq MSHR miss cycles
system.cpu1.dcache.WriteReq_mshr_miss_rate::.cpu1.data     0.076619                       # mshr miss rate for WriteReq accesses
system.cpu1.dcache.WriteReq_mshr_miss_rate::total     0.076619                       # mshr miss rate for WriteReq accesses
system.cpu1.dcache.WriteReq_avg_mshr_miss_latency::.cpu1.data 60309.026906                       # average WriteReq mshr miss latency
system.cpu1.dcache.WriteReq_avg_mshr_miss_latency::total 60309.026906                       # average WriteReq mshr miss latency
system.cpu1.dcache.LoadLockedReq_hits::.cpu1.data        86026                       # number of LoadLockedReq hits
system.cpu1.dcache.LoadLockedReq_hits::total        86026                       # number of LoadLockedReq hits
system.cpu1.dcache.LoadLockedReq_misses::.cpu1.data        29197                       # number of LoadLockedReq misses
system.cpu1.dcache.LoadLockedReq_misses::total        29197                       # number of LoadLockedReq misses
system.cpu1.dcache.LoadLockedReq_miss_latency::.cpu1.data    732488500                       # number of LoadLockedReq miss cycles
system.cpu1.dcache.LoadLockedReq_miss_latency::total    732488500                       # number of LoadLockedReq miss cycles
system.cpu1.dcache.LoadLockedReq_accesses::.cpu1.data       115223                       # number of LoadLockedReq accesses(hits+misses)
system.cpu1.dcache.LoadLockedReq_accesses::total       115223                       # number of LoadLockedReq accesses(hits+misses)
system.cpu1.dcache.LoadLockedReq_miss_rate::.cpu1.data     0.253396                       # miss rate for LoadLockedReq accesses
system.cpu1.dcache.LoadLockedReq_miss_rate::total     0.253396                       # miss rate for LoadLockedReq accesses
system.cpu1.dcache.LoadLockedReq_avg_miss_latency::.cpu1.data 25087.800116                       # average LoadLockedReq miss latency
system.cpu1.dcache.LoadLockedReq_avg_miss_latency::total 25087.800116                       # average LoadLockedReq miss latency
system.cpu1.dcache.LoadLockedReq_mshr_hits::.cpu1.data        23719                       # number of LoadLockedReq MSHR hits
system.cpu1.dcache.LoadLockedReq_mshr_hits::total        23719                       # number of LoadLockedReq MSHR hits
system.cpu1.dcache.LoadLockedReq_mshr_misses::.cpu1.data         5478                       # number of LoadLockedReq MSHR misses
system.cpu1.dcache.LoadLockedReq_mshr_misses::total         5478                       # number of LoadLockedReq MSHR misses
system.cpu1.dcache.LoadLockedReq_mshr_miss_latency::.cpu1.data     80824500                       # number of LoadLockedReq MSHR miss cycles
system.cpu1.dcache.LoadLockedReq_mshr_miss_latency::total     80824500                       # number of LoadLockedReq MSHR miss cycles
system.cpu1.dcache.LoadLockedReq_mshr_miss_rate::.cpu1.data     0.047543                       # mshr miss rate for LoadLockedReq accesses
system.cpu1.dcache.LoadLockedReq_mshr_miss_rate::total     0.047543                       # mshr miss rate for LoadLockedReq accesses
system.cpu1.dcache.LoadLockedReq_avg_mshr_miss_latency::.cpu1.data 14754.381161                       # average LoadLockedReq mshr miss latency
system.cpu1.dcache.LoadLockedReq_avg_mshr_miss_latency::total 14754.381161                       # average LoadLockedReq mshr miss latency
system.cpu1.dcache.StoreCondReq_hits::.cpu1.data        63371                       # number of StoreCondReq hits
system.cpu1.dcache.StoreCondReq_hits::total        63371                       # number of StoreCondReq hits
system.cpu1.dcache.StoreCondReq_misses::.cpu1.data        29165                       # number of StoreCondReq misses
system.cpu1.dcache.StoreCondReq_misses::total        29165                       # number of StoreCondReq misses
system.cpu1.dcache.StoreCondReq_miss_latency::.cpu1.data    233342000                       # number of StoreCondReq miss cycles
system.cpu1.dcache.StoreCondReq_miss_latency::total    233342000                       # number of StoreCondReq miss cycles
system.cpu1.dcache.StoreCondReq_accesses::.cpu1.data        92536                       # number of StoreCondReq accesses(hits+misses)
system.cpu1.dcache.StoreCondReq_accesses::total        92536                       # number of StoreCondReq accesses(hits+misses)
system.cpu1.dcache.StoreCondReq_miss_rate::.cpu1.data     0.315175                       # miss rate for StoreCondReq accesses
system.cpu1.dcache.StoreCondReq_miss_rate::total     0.315175                       # miss rate for StoreCondReq accesses
system.cpu1.dcache.StoreCondReq_avg_miss_latency::.cpu1.data  8000.754329                       # average StoreCondReq miss latency
system.cpu1.dcache.StoreCondReq_avg_miss_latency::total  8000.754329                       # average StoreCondReq miss latency
system.cpu1.dcache.StoreCondReq_mshr_misses::.cpu1.data        29163                       # number of StoreCondReq MSHR misses
system.cpu1.dcache.StoreCondReq_mshr_misses::total        29163                       # number of StoreCondReq MSHR misses
system.cpu1.dcache.StoreCondReq_mshr_miss_latency::.cpu1.data    204354000                       # number of StoreCondReq MSHR miss cycles
system.cpu1.dcache.StoreCondReq_mshr_miss_latency::total    204354000                       # number of StoreCondReq MSHR miss cycles
system.cpu1.dcache.StoreCondReq_mshr_miss_rate::.cpu1.data     0.315153                       # mshr miss rate for StoreCondReq accesses
system.cpu1.dcache.StoreCondReq_mshr_miss_rate::total     0.315153                       # mshr miss rate for StoreCondReq accesses
system.cpu1.dcache.StoreCondReq_avg_mshr_miss_latency::.cpu1.data  7007.303775                       # average StoreCondReq mshr miss latency
system.cpu1.dcache.StoreCondReq_avg_mshr_miss_latency::total  7007.303775                       # average StoreCondReq mshr miss latency
system.cpu1.dcache.StoreCondFailReq_miss_latency::.cpu1.data      3015000                       # number of StoreCondFailReq miss cycles
system.cpu1.dcache.StoreCondFailReq_miss_latency::total      3015000                       # number of StoreCondFailReq miss cycles
system.cpu1.dcache.StoreCondFailReq_avg_miss_latency::.cpu1.data          inf                       # average StoreCondFailReq miss latency
system.cpu1.dcache.StoreCondFailReq_avg_miss_latency::total          inf                       # average StoreCondFailReq miss latency
system.cpu1.dcache.StoreCondFailReq_mshr_miss_latency::.cpu1.data      2840000                       # number of StoreCondFailReq MSHR miss cycles
system.cpu1.dcache.StoreCondFailReq_mshr_miss_latency::total      2840000                       # number of StoreCondFailReq MSHR miss cycles
system.cpu1.dcache.StoreCondFailReq_avg_mshr_miss_latency::.cpu1.data          inf                       # average StoreCondFailReq mshr miss latency
system.cpu1.dcache.StoreCondFailReq_avg_mshr_miss_latency::total          inf                       # average StoreCondFailReq mshr miss latency
system.cpu1.dcache.SwapReq_hits::.cpu1.data        54807                       # number of SwapReq hits
system.cpu1.dcache.SwapReq_hits::total          54807                       # number of SwapReq hits
system.cpu1.dcache.SwapReq_misses::.cpu1.data        26680                       # number of SwapReq misses
system.cpu1.dcache.SwapReq_misses::total        26680                       # number of SwapReq misses
system.cpu1.dcache.SwapReq_miss_latency::.cpu1.data    140708500                       # number of SwapReq miss cycles
system.cpu1.dcache.SwapReq_miss_latency::total    140708500                       # number of SwapReq miss cycles
system.cpu1.dcache.SwapReq_accesses::.cpu1.data        81487                       # number of SwapReq accesses(hits+misses)
system.cpu1.dcache.SwapReq_accesses::total        81487                       # number of SwapReq accesses(hits+misses)
system.cpu1.dcache.SwapReq_miss_rate::.cpu1.data     0.327414                       # miss rate for SwapReq accesses
system.cpu1.dcache.SwapReq_miss_rate::total     0.327414                       # miss rate for SwapReq accesses
system.cpu1.dcache.SwapReq_avg_miss_latency::.cpu1.data  5273.931784                       # average SwapReq miss latency
system.cpu1.dcache.SwapReq_avg_miss_latency::total  5273.931784                       # average SwapReq miss latency
system.cpu1.dcache.SwapReq_mshr_hits::.cpu1.data            5                       # number of SwapReq MSHR hits
system.cpu1.dcache.SwapReq_mshr_hits::total            5                       # number of SwapReq MSHR hits
system.cpu1.dcache.SwapReq_mshr_misses::.cpu1.data        26675                       # number of SwapReq MSHR misses
system.cpu1.dcache.SwapReq_mshr_misses::total        26675                       # number of SwapReq MSHR misses
system.cpu1.dcache.SwapReq_mshr_miss_latency::.cpu1.data    113976000                       # number of SwapReq MSHR miss cycles
system.cpu1.dcache.SwapReq_mshr_miss_latency::total    113976000                       # number of SwapReq MSHR miss cycles
system.cpu1.dcache.SwapReq_mshr_miss_rate::.cpu1.data     0.327353                       # mshr miss rate for SwapReq accesses
system.cpu1.dcache.SwapReq_mshr_miss_rate::total     0.327353                       # mshr miss rate for SwapReq accesses
system.cpu1.dcache.SwapReq_avg_mshr_miss_latency::.cpu1.data  4272.764761                       # average SwapReq mshr miss latency
system.cpu1.dcache.SwapReq_avg_mshr_miss_latency::total  4272.764761                       # average SwapReq mshr miss latency
system.cpu1.dcache.tags.pwrStateResidencyTicks::UNDEFINED 193669933500                       # Cumulative time (in ticks) in various power states
system.cpu1.dcache.tags.tagsinuse           31.497462                       # Cycle average of tags in use
system.cpu1.dcache.tags.total_refs           10374125                       # Total number of references to valid blocks.
system.cpu1.dcache.tags.sampled_refs          1180285                       # Sample count of references to valid blocks.
system.cpu1.dcache.tags.avg_refs             8.789508                       # Average number of references to valid blocks.
system.cpu1.dcache.tags.warmup_cycle                0                       # Cycle when the warmup percentage was hit.
system.cpu1.dcache.tags.occ_blocks::.cpu1.data    31.497462                       # Average occupied blocks per requestor
system.cpu1.dcache.tags.occ_percent::.cpu1.data     0.984296                       # Average percentage of cache occupancy
system.cpu1.dcache.tags.occ_percent::total     0.984296                       # Average percentage of cache occupancy
system.cpu1.dcache.tags.occ_task_id_blocks::1024           31                       # Occupied blocks per task id
system.cpu1.dcache.tags.age_task_id_blocks_1024::1           31                       # Occupied blocks per task id
system.cpu1.dcache.tags.occ_task_id_percent::1024     0.968750                       # Percentage of cache occupancy per task id
system.cpu1.dcache.tags.tag_accesses         27378983                       # Number of tag accesses
system.cpu1.dcache.tags.data_accesses        27378983                       # Number of data accesses
system.cpu_clk_domain.clock                       500                       # Clock period in ticks
system.tol2bus.pwrStateResidencyTicks::UNDEFINED 193669933500                       # Cumulative time (in ticks) in various power states
system.tol2bus.trans_dist::ReadResp           5243883                       # Transaction distribution
system.tol2bus.trans_dist::WritebackDirty      2368716                       # Transaction distribution
system.tol2bus.trans_dist::WritebackClean      4621041                       # Transaction distribution
system.tol2bus.trans_dist::CleanEvict         9159728                       # Transaction distribution
system.tol2bus.trans_dist::HardPFReq          6006182                       # Transaction distribution
system.tol2bus.trans_dist::HardPFResp              38                       # Transaction distribution
system.tol2bus.trans_dist::UpgradeReq          100182                       # Transaction distribution
system.tol2bus.trans_dist::SCUpgradeReq         53016                       # Transaction distribution
system.tol2bus.trans_dist::UpgradeResp         153198                       # Transaction distribution
system.tol2bus.trans_dist::SCUpgradeFailReq          279                       # Transaction distribution
system.tol2bus.trans_dist::UpgradeFailResp          279                       # Transaction distribution
system.tol2bus.trans_dist::ReadExReq           844231                       # Transaction distribution
system.tol2bus.trans_dist::ReadExResp          844232                       # Transaction distribution
system.tol2bus.trans_dist::ReadCleanReq       3449512                       # Transaction distribution
system.tol2bus.trans_dist::ReadSharedReq      1794372                       # Transaction distribution
system.tol2bus.trans_dist::InvalidateReq         4354                       # Transaction distribution
system.tol2bus.trans_dist::InvalidateResp         4354                       # Transaction distribution
system.tol2bus.pkt_count_system.cpu0.icache.mem_side::system.l2.cpu_side      3782289                       # Packet count per connected master and slave (bytes)
system.tol2bus.pkt_count_system.cpu0.dcache.mem_side::system.l2.cpu_side      4295158                       # Packet count per connected master and slave (bytes)
system.tol2bus.pkt_count_system.cpu1.icache.mem_side::system.l2.cpu_side      6566021                       # Packet count per connected master and slave (bytes)
system.tol2bus.pkt_count_system.cpu1.dcache.mem_side::system.l2.cpu_side      3419063                       # Packet count per connected master and slave (bytes)
system.tol2bus.pkt_count::total              18062531                       # Packet count per connected master and slave (bytes)
system.tol2bus.pkt_size_system.cpu0.icache.mem_side::system.l2.cpu_side    161374272                       # Cumulative packet size per connected master and slave (bytes)
system.tol2bus.pkt_size_system.cpu0.dcache.mem_side::system.l2.cpu_side    174637952                       # Cumulative packet size per connected master and slave (bytes)
system.tol2bus.pkt_size_system.cpu1.icache.mem_side::system.l2.cpu_side    280148800                       # Cumulative packet size per connected master and slave (bytes)
system.tol2bus.pkt_size_system.cpu1.dcache.mem_side::system.l2.cpu_side    137848512                       # Cumulative packet size per connected master and slave (bytes)
system.tol2bus.pkt_size::total              754009536                       # Cumulative packet size per connected master and slave (bytes)
system.tol2bus.snoops                        16585104                       # Total snoops (count)
system.tol2bus.snoopTraffic                  82996992                       # Total snoop traffic (bytes)
system.tol2bus.snoop_fanout::samples         22493080                       # Request fanout histogram
system.tol2bus.snoop_fanout::mean            0.270236                       # Request fanout histogram
system.tol2bus.snoop_fanout::stdev           0.481765                       # Request fanout histogram
system.tol2bus.snoop_fanout::underflows             0      0.00%      0.00% # Request fanout histogram
system.tol2bus.snoop_fanout::0               16807030     74.72%     74.72% # Request fanout histogram
system.tol2bus.snoop_fanout::1                5293667     23.53%     98.26% # Request fanout histogram
system.tol2bus.snoop_fanout::2                 392383      1.74%    100.00% # Request fanout histogram
system.tol2bus.snoop_fanout::3                      0      0.00%    100.00% # Request fanout histogram
system.tol2bus.snoop_fanout::4                      0      0.00%    100.00% # Request fanout histogram
system.tol2bus.snoop_fanout::5                      0      0.00%    100.00% # Request fanout histogram
system.tol2bus.snoop_fanout::6                      0      0.00%    100.00% # Request fanout histogram
system.tol2bus.snoop_fanout::7                      0      0.00%    100.00% # Request fanout histogram
system.tol2bus.snoop_fanout::8                      0      0.00%    100.00% # Request fanout histogram
system.tol2bus.snoop_fanout::overflows              0      0.00%    100.00% # Request fanout histogram
system.tol2bus.snoop_fanout::min_value              0                       # Request fanout histogram
system.tol2bus.snoop_fanout::max_value              2                       # Request fanout histogram
system.tol2bus.snoop_fanout::total           22493080                       # Request fanout histogram
system.tol2bus.reqLayer0.occupancy        11987769697                       # Layer occupancy (ticks)
system.tol2bus.reqLayer0.utilization              6.2                       # Layer utilization (%)
system.tol2bus.respLayer1.occupancy        2233935533                       # Layer occupancy (ticks)
system.tol2bus.respLayer1.utilization             1.2                       # Layer utilization (%)
system.tol2bus.respLayer0.occupancy        1893339748                       # Layer occupancy (ticks)
system.tol2bus.respLayer0.utilization             1.0                       # Layer utilization (%)
system.tol2bus.respLayer3.occupancy        1808140237                       # Layer occupancy (ticks)
system.tol2bus.respLayer3.utilization             0.9                       # Layer utilization (%)
system.tol2bus.respLayer2.occupancy        3284395288                       # Layer occupancy (ticks)
system.tol2bus.respLayer2.utilization             1.7                       # Layer utilization (%)
system.tol2bus.snoopLayer0.occupancy            57014                       # Layer occupancy (ticks)
system.tol2bus.snoopLayer0.utilization            0.0                       # Layer utilization (%)

---------- End Simulation Statistics   ----------
