
---------- Begin Simulation Statistics ----------
final_tick                               1302545865500                       # Number of ticks from beginning of simulation (restored from checkpoints and never reset)
host_inst_rate                                  61213                       # Simulator instruction rate (inst/s)
host_mem_usage                                 703252                       # Number of bytes of host memory used
host_op_rate                                    61392                       # Simulator op (including micro ops) rate (op/s)
host_seconds                                 23470.38                       # Real time elapsed on the host
host_tick_rate                               55497437                       # Simulator tick rate (ticks/s)
sim_freq                                 1000000000000                       # Frequency of simulated ticks
sim_insts                                  1436681153                       # Number of instructions simulated
sim_ops                                    1440884895                       # Number of ops (including micro ops) simulated
sim_seconds                                  1.302546                       # Number of seconds simulated
sim_ticks                                1302545865500                       # Number of ticks simulated
system.cpu0.branchPred.BTBCorrect                   0                       # Number of correct BTB predictions (this stat may not work properly.
system.cpu0.branchPred.BTBHitPct            87.608534                       # BTB Hit Percentage
system.cpu0.branchPred.BTBHits              182557907                       # Number of BTB hits
system.cpu0.branchPred.BTBLookups           208379138                       # Number of BTB lookups
system.cpu0.branchPred.RASInCorrect                 0                       # Number of incorrect RAS predictions.
system.cpu0.branchPred.condIncorrect         17819520                       # Number of conditional branches incorrect
system.cpu0.branchPred.condPredicted        272995612                       # Number of conditional branches predicted
system.cpu0.branchPred.indirectHits          20770023                       # Number of indirect target hits.
system.cpu0.branchPred.indirectLookups       22194448                       # Number of indirect predictor lookups.
system.cpu0.branchPred.indirectMisses         1424425                       # Number of indirect misses.
system.cpu0.branchPred.lookups              347295443                       # Number of BP lookups
system.cpu0.branchPred.usedRAS                      0                       # Number of times the RAS was used to get a target.
system.cpu0.branchPredindirectMispredicted      2187678                       # Number of mispredicted indirect branches.
system.cpu0.commit.amos                       2100250                       # Number of atomic instructions committed
system.cpu0.commit.branchMispredicts          9890428                       # The number of times a branch was mispredicted
system.cpu0.commit.branches                 329549925                       # Number of branches committed
system.cpu0.commit.bw_lim_events             32586579                       # number cycles where commit BW limit reached
system.cpu0.commit.commitNonSpecStalls        6309704                       # The number of times commit has been forced to stall to communicate backwards
system.cpu0.commit.commitSquashedInsts       46231089                       # The number of squashed insts skipped by commit
system.cpu0.commit.committedInsts          1316576782                       # Number of instructions committed
system.cpu0.commit.committedOps            1318680352                       # Number of ops (including micro ops) committed
system.cpu0.commit.committed_per_cycle::samples   2307109604                       # Number of insts commited each cycle
system.cpu0.commit.committed_per_cycle::mean     0.571572                       # Number of insts commited each cycle
system.cpu0.commit.committed_per_cycle::stdev     1.284952                       # Number of insts commited each cycle
system.cpu0.commit.committed_per_cycle::underflows            0      0.00%      0.00% # Number of insts commited each cycle
system.cpu0.commit.committed_per_cycle::0   1632276731     70.75%     70.75% # Number of insts commited each cycle
system.cpu0.commit.committed_per_cycle::1    415844678     18.02%     88.77% # Number of insts commited each cycle
system.cpu0.commit.committed_per_cycle::2    101533764      4.40%     93.18% # Number of insts commited each cycle
system.cpu0.commit.committed_per_cycle::3     86270095      3.74%     96.91% # Number of insts commited each cycle
system.cpu0.commit.committed_per_cycle::4     24339228      1.05%     97.97% # Number of insts commited each cycle
system.cpu0.commit.committed_per_cycle::5      5333428      0.23%     98.20% # Number of insts commited each cycle
system.cpu0.commit.committed_per_cycle::6      6234530      0.27%     98.47% # Number of insts commited each cycle
system.cpu0.commit.committed_per_cycle::7      2690571      0.12%     98.59% # Number of insts commited each cycle
system.cpu0.commit.committed_per_cycle::8     32586579      1.41%    100.00% # Number of insts commited each cycle
system.cpu0.commit.committed_per_cycle::overflows            0      0.00%    100.00% # Number of insts commited each cycle
system.cpu0.commit.committed_per_cycle::min_value            0                       # Number of insts commited each cycle
system.cpu0.commit.committed_per_cycle::max_value            8                       # Number of insts commited each cycle
system.cpu0.commit.committed_per_cycle::total   2307109604                       # Number of insts commited each cycle
system.cpu0.commit.fp_insts                        50                       # Number of committed floating point instructions.
system.cpu0.commit.function_calls            25143888                       # Number of function calls committed.
system.cpu0.commit.int_insts               1273948229                       # Number of committed integer instructions.
system.cpu0.commit.loads                    405173579                       # Number of loads committed
system.cpu0.commit.membars                    4203726                       # Number of memory barriers committed
system.cpu0.commit.op_class_0::No_OpClass      4203732      0.32%      0.32% # Class of committed instruction
system.cpu0.commit.op_class_0::IntAlu       742082315     56.27%     56.59% # Class of committed instruction
system.cpu0.commit.op_class_0::IntMult       11833021      0.90%     57.49% # Class of committed instruction
system.cpu0.commit.op_class_0::IntDiv         2099837      0.16%     57.65% # Class of committed instruction
system.cpu0.commit.op_class_0::FloatAdd             0      0.00%     57.65% # Class of committed instruction
system.cpu0.commit.op_class_0::FloatCmp             4      0.00%     57.65% # Class of committed instruction
system.cpu0.commit.op_class_0::FloatCvt            12      0.00%     57.65% # Class of committed instruction
system.cpu0.commit.op_class_0::FloatMult            0      0.00%     57.65% # Class of committed instruction
system.cpu0.commit.op_class_0::FloatMultAcc            0      0.00%     57.65% # Class of committed instruction
system.cpu0.commit.op_class_0::FloatDiv             2      0.00%     57.65% # Class of committed instruction
system.cpu0.commit.op_class_0::FloatMisc            4      0.00%     57.65% # Class of committed instruction
system.cpu0.commit.op_class_0::FloatSqrt            0      0.00%     57.65% # Class of committed instruction
system.cpu0.commit.op_class_0::SimdAdd              0      0.00%     57.65% # Class of committed instruction
system.cpu0.commit.op_class_0::SimdAddAcc            0      0.00%     57.65% # Class of committed instruction
system.cpu0.commit.op_class_0::SimdAlu              0      0.00%     57.65% # Class of committed instruction
system.cpu0.commit.op_class_0::SimdCmp              0      0.00%     57.65% # Class of committed instruction
system.cpu0.commit.op_class_0::SimdCvt              0      0.00%     57.65% # Class of committed instruction
system.cpu0.commit.op_class_0::SimdMisc             0      0.00%     57.65% # Class of committed instruction
system.cpu0.commit.op_class_0::SimdMult             0      0.00%     57.65% # Class of committed instruction
system.cpu0.commit.op_class_0::SimdMultAcc            0      0.00%     57.65% # Class of committed instruction
system.cpu0.commit.op_class_0::SimdShift            0      0.00%     57.65% # Class of committed instruction
system.cpu0.commit.op_class_0::SimdShiftAcc            0      0.00%     57.65% # Class of committed instruction
system.cpu0.commit.op_class_0::SimdDiv              0      0.00%     57.65% # Class of committed instruction
system.cpu0.commit.op_class_0::SimdSqrt             0      0.00%     57.65% # Class of committed instruction
system.cpu0.commit.op_class_0::SimdFloatAdd            0      0.00%     57.65% # Class of committed instruction
system.cpu0.commit.op_class_0::SimdFloatAlu            0      0.00%     57.65% # Class of committed instruction
system.cpu0.commit.op_class_0::SimdFloatCmp            0      0.00%     57.65% # Class of committed instruction
system.cpu0.commit.op_class_0::SimdFloatCvt            0      0.00%     57.65% # Class of committed instruction
system.cpu0.commit.op_class_0::SimdFloatDiv            0      0.00%     57.65% # Class of committed instruction
system.cpu0.commit.op_class_0::SimdFloatMisc            0      0.00%     57.65% # Class of committed instruction
system.cpu0.commit.op_class_0::SimdFloatMult            0      0.00%     57.65% # Class of committed instruction
system.cpu0.commit.op_class_0::SimdFloatMultAcc            0      0.00%     57.65% # Class of committed instruction
system.cpu0.commit.op_class_0::SimdFloatSqrt            0      0.00%     57.65% # Class of committed instruction
system.cpu0.commit.op_class_0::SimdReduceAdd            0      0.00%     57.65% # Class of committed instruction
system.cpu0.commit.op_class_0::SimdReduceAlu            0      0.00%     57.65% # Class of committed instruction
system.cpu0.commit.op_class_0::SimdReduceCmp            0      0.00%     57.65% # Class of committed instruction
system.cpu0.commit.op_class_0::SimdFloatReduceAdd            0      0.00%     57.65% # Class of committed instruction
system.cpu0.commit.op_class_0::SimdFloatReduceCmp            0      0.00%     57.65% # Class of committed instruction
system.cpu0.commit.op_class_0::SimdAes              0      0.00%     57.65% # Class of committed instruction
system.cpu0.commit.op_class_0::SimdAesMix            0      0.00%     57.65% # Class of committed instruction
system.cpu0.commit.op_class_0::SimdSha1Hash            0      0.00%     57.65% # Class of committed instruction
system.cpu0.commit.op_class_0::SimdSha1Hash2            0      0.00%     57.65% # Class of committed instruction
system.cpu0.commit.op_class_0::SimdSha256Hash            0      0.00%     57.65% # Class of committed instruction
system.cpu0.commit.op_class_0::SimdSha256Hash2            0      0.00%     57.65% # Class of committed instruction
system.cpu0.commit.op_class_0::SimdShaSigma2            0      0.00%     57.65% # Class of committed instruction
system.cpu0.commit.op_class_0::SimdShaSigma3            0      0.00%     57.65% # Class of committed instruction
system.cpu0.commit.op_class_0::SimdPredAlu            0      0.00%     57.65% # Class of committed instruction
system.cpu0.commit.op_class_0::MemRead      407273821     30.88%     88.53% # Class of committed instruction
system.cpu0.commit.op_class_0::MemWrite     151187576     11.47%    100.00% # Class of committed instruction
system.cpu0.commit.op_class_0::FloatMemRead            8      0.00%    100.00% # Class of committed instruction
system.cpu0.commit.op_class_0::FloatMemWrite           20      0.00%    100.00% # Class of committed instruction
system.cpu0.commit.op_class_0::IprAccess            0      0.00%    100.00% # Class of committed instruction
system.cpu0.commit.op_class_0::InstPrefetch            0      0.00%    100.00% # Class of committed instruction
system.cpu0.commit.op_class_0::total       1318680352                       # Class of committed instruction
system.cpu0.commit.refs                     558461425                       # Number of memory references committed
system.cpu0.commit.swp_count                        0                       # Number of s/w prefetches committed
system.cpu0.commit.vec_insts                        0                       # Number of committed Vector instructions.
system.cpu0.committedInsts                 1316576782                       # Number of Instructions Simulated
system.cpu0.committedOps                   1318680352                       # Number of Ops (including micro ops) Simulated
system.cpu0.cpi                              1.975029                       # CPI: Cycles Per Instruction
system.cpu0.cpi_total                        1.975029                       # CPI: Total CPI of All Threads
system.cpu0.decode.BlockedCycles            417366463                       # Number of cycles decode is blocked
system.cpu0.decode.BranchMispred              7982665                       # Number of times decode detected a branch misprediction
system.cpu0.decode.BranchResolved           178007233                       # Number of times decode resolved a branch
system.cpu0.decode.DecodedInsts            1394742230                       # Number of instructions handled by decode
system.cpu0.decode.IdleCycles               923721103                       # Number of cycles decode is idle
system.cpu0.decode.RunCycles                963341619                       # Number of cycles decode is running
system.cpu0.decode.SquashCycles               9900746                       # Number of cycles decode is squashing
system.cpu0.decode.SquashedInsts              8993322                       # Number of squashed instructions handled by decode
system.cpu0.decode.UnblockCycles              5741661                       # Number of cycles decode is unblocking
system.cpu0.dtb.accesses                            0                       # DTB accesses
system.cpu0.dtb.hits                                0                       # DTB hits
system.cpu0.dtb.misses                              0                       # DTB misses
system.cpu0.dtb.read_accesses                       0                       # DTB read accesses
system.cpu0.dtb.read_hits                           0                       # DTB read hits
system.cpu0.dtb.read_misses                         0                       # DTB read misses
system.cpu0.dtb.write_accesses                      0                       # DTB write accesses
system.cpu0.dtb.write_hits                          0                       # DTB write hits
system.cpu0.dtb.write_misses                        0                       # DTB write misses
system.cpu0.fetch.Branches                  347295443                       # Number of branches that fetch encountered
system.cpu0.fetch.CacheLines                235770106                       # Number of cache lines fetched
system.cpu0.fetch.Cycles                   1387091387                       # Number of cycles fetch has run and was not squashing or blocked
system.cpu0.fetch.IcacheSquashes              5021367                       # Number of outstanding Icache misses that were squashed
system.cpu0.fetch.IcacheWaitRetryStallCycles          169                       # Number of stall cycles due to full MSHR
system.cpu0.fetch.Insts                    1414858653                       # Number of instructions fetch has processed
system.cpu0.fetch.MiscStallCycles                  16                       # Number of cycles fetch has spent waiting on interrupts, or bad addresses, or out of MSHRs
system.cpu0.fetch.PendingTrapStallCycles            6                       # Number of stall cycles due to pending traps
system.cpu0.fetch.SquashCycles               35659678                       # Number of cycles fetch has spent squashing
system.cpu0.fetch.branchRate                 0.133561                       # Number of branch fetches per cycle
system.cpu0.fetch.icacheStallCycles         915150175                       # Number of cycles fetch is stalled on an Icache miss
system.cpu0.fetch.predictedBranches         203327930                       # Number of branches that fetch has predicted taken
system.cpu0.fetch.rate                       0.544118                       # Number of inst fetches per cycle
system.cpu0.fetch.rateDist::samples        2320071592                       # Number of instructions fetched each cycle (Total)
system.cpu0.fetch.rateDist::mean             0.610741                       # Number of instructions fetched each cycle (Total)
system.cpu0.fetch.rateDist::stdev            0.890376                       # Number of instructions fetched each cycle (Total)
system.cpu0.fetch.rateDist::underflows              0      0.00%      0.00% # Number of instructions fetched each cycle (Total)
system.cpu0.fetch.rateDist::0              1313673752     56.62%     56.62% # Number of instructions fetched each cycle (Total)
system.cpu0.fetch.rateDist::1               749301841     32.30%     88.92% # Number of instructions fetched each cycle (Total)
system.cpu0.fetch.rateDist::2               144841037      6.24%     95.16% # Number of instructions fetched each cycle (Total)
system.cpu0.fetch.rateDist::3                90591372      3.90%     99.07% # Number of instructions fetched each cycle (Total)
system.cpu0.fetch.rateDist::4                12738948      0.55%     99.62% # Number of instructions fetched each cycle (Total)
system.cpu0.fetch.rateDist::5                 4621682      0.20%     99.81% # Number of instructions fetched each cycle (Total)
system.cpu0.fetch.rateDist::6                   91101      0.00%     99.82% # Number of instructions fetched each cycle (Total)
system.cpu0.fetch.rateDist::7                 2100892      0.09%     99.91% # Number of instructions fetched each cycle (Total)
system.cpu0.fetch.rateDist::8                 2110967      0.09%    100.00% # Number of instructions fetched each cycle (Total)
system.cpu0.fetch.rateDist::overflows               0      0.00%    100.00% # Number of instructions fetched each cycle (Total)
system.cpu0.fetch.rateDist::min_value               0                       # Number of instructions fetched each cycle (Total)
system.cpu0.fetch.rateDist::max_value               8                       # Number of instructions fetched each cycle (Total)
system.cpu0.fetch.rateDist::total          2320071592                       # Number of instructions fetched each cycle (Total)
system.cpu0.fp_regfile_reads                       44                       # number of floating regfile reads
system.cpu0.fp_regfile_writes                      23                       # number of floating regfile writes
system.cpu0.idleCycles                      280205597                       # Total number of cycles that the CPU has spent unscheduled due to idling
system.cpu0.iew.branchMispredicts             9988002                       # Number of branch mispredicts detected at execute
system.cpu0.iew.exec_branches               332959450                       # Number of branches executed
system.cpu0.iew.exec_nop                            0                       # number of nop insts executed
system.cpu0.iew.exec_rate                    0.521126                       # Inst execution rate
system.cpu0.iew.exec_refs                   583915759                       # number of memory reference insts executed
system.cpu0.iew.exec_stores                 154231248                       # Number of stores executed
system.cpu0.iew.exec_swp                            0                       # number of swp insts executed
system.cpu0.iew.iewBlockCycles              337767459                       # Number of cycles IEW is blocking
system.cpu0.iew.iewDispLoadInsts            429138576                       # Number of dispatched load instructions
system.cpu0.iew.iewDispNonSpecInsts           2106477                       # Number of dispatched non-speculative instructions
system.cpu0.iew.iewDispSquashedInsts          8585624                       # Number of squashed instructions skipped by dispatch
system.cpu0.iew.iewDispStoreInsts           154669996                       # Number of dispatched store instructions
system.cpu0.iew.iewDispatchedInsts         1364847823                       # Number of instructions dispatched to IQ
system.cpu0.iew.iewExecLoadInsts            429684511                       # Number of load instructions executed
system.cpu0.iew.iewExecSquashedInsts          7159490                       # Number of squashed instructions skipped in execute
system.cpu0.iew.iewExecutedInsts           1355070926                       # Number of executed instructions
system.cpu0.iew.iewIQFullEvents               1425438                       # Number of times the IQ has become full, causing a stall
system.cpu0.iew.iewIdleCycles                       0                       # Number of cycles IEW is idle
system.cpu0.iew.iewLSQFullEvents             14109536                       # Number of times the LSQ has become full, causing a stall
system.cpu0.iew.iewSquashCycles               9900746                       # Number of cycles IEW is squashing
system.cpu0.iew.iewUnblockCycles             18108544                       # Number of cycles IEW is unblocking
system.cpu0.iew.lsq.thread0.blockedLoads            0                       # Number of blocked loads due to partial load-store forwarding
system.cpu0.iew.lsq.thread0.cacheBlocked       179315                       # Number of times an access to memory failed due to the cache being blocked
system.cpu0.iew.lsq.thread0.forwLoads        24292333                       # Number of loads that had data forwarded from stores
system.cpu0.iew.lsq.thread0.ignoredResponses        35213                       # Number of memory responses ignored because the instruction is squashed
system.cpu0.iew.lsq.thread0.invAddrLoads            0                       # Number of loads ignored due to an invalid address
system.cpu0.iew.lsq.thread0.invAddrSwpfs            0                       # Number of software prefetches ignored due to an invalid address
system.cpu0.iew.lsq.thread0.memOrderViolation         9657                       # Number of memory ordering violations
system.cpu0.iew.lsq.thread0.rescheduledLoads      4253492                       # Number of loads that were rescheduled
system.cpu0.iew.lsq.thread0.squashedLoads     23964997                       # Number of loads squashed
system.cpu0.iew.lsq.thread0.squashedStores      1382139                       # Number of stores squashed
system.cpu0.iew.memOrderViolationEvents          9657                       # Number of memory order violations
system.cpu0.iew.predictedNotTakenIncorrect       782972                       # Number of branches that were predicted not taken incorrectly
system.cpu0.iew.predictedTakenIncorrect       9205030                       # Number of branches that were predicted taken incorrectly
system.cpu0.iew.wb_consumers                610476515                       # num instructions consuming a value
system.cpu0.iew.wb_count                   1343227285                       # cumulative count of insts written-back
system.cpu0.iew.wb_fanout                    0.833079                       # average fanout of values written-back
system.cpu0.iew.wb_producers                508575266                       # num instructions producing a value
system.cpu0.iew.wb_rate                      0.516571                       # insts written-back per cycle
system.cpu0.iew.wb_sent                    1343316113                       # cumulative count of insts sent to commit
system.cpu0.int_regfile_reads              1666527056                       # number of integer regfile reads
system.cpu0.int_regfile_writes              865834420                       # number of integer regfile writes
system.cpu0.ipc                              0.506322                       # IPC: Instructions Per Cycle
system.cpu0.ipc_total                        0.506322                       # IPC: Total IPC of All Threads
system.cpu0.iq.FU_type_0::No_OpClass          4205594      0.31%      0.31% # Type of FU issued
system.cpu0.iq.FU_type_0::IntAlu            757685511     55.62%     55.93% # Type of FU issued
system.cpu0.iq.FU_type_0::IntMult            11848479      0.87%     56.80% # Type of FU issued
system.cpu0.iq.FU_type_0::IntDiv              2100404      0.15%     56.95% # Type of FU issued
system.cpu0.iq.FU_type_0::FloatAdd                  0      0.00%     56.95% # Type of FU issued
system.cpu0.iq.FU_type_0::FloatCmp                  4      0.00%     56.95% # Type of FU issued
system.cpu0.iq.FU_type_0::FloatCvt                 12      0.00%     56.95% # Type of FU issued
system.cpu0.iq.FU_type_0::FloatMult                 0      0.00%     56.95% # Type of FU issued
system.cpu0.iq.FU_type_0::FloatMultAcc              0      0.00%     56.95% # Type of FU issued
system.cpu0.iq.FU_type_0::FloatDiv                  2      0.00%     56.95% # Type of FU issued
system.cpu0.iq.FU_type_0::FloatMisc                 4      0.00%     56.95% # Type of FU issued
system.cpu0.iq.FU_type_0::FloatSqrt                 0      0.00%     56.95% # Type of FU issued
system.cpu0.iq.FU_type_0::SimdAdd                   0      0.00%     56.95% # Type of FU issued
system.cpu0.iq.FU_type_0::SimdAddAcc                0      0.00%     56.95% # Type of FU issued
system.cpu0.iq.FU_type_0::SimdAlu                   0      0.00%     56.95% # Type of FU issued
system.cpu0.iq.FU_type_0::SimdCmp                   0      0.00%     56.95% # Type of FU issued
system.cpu0.iq.FU_type_0::SimdCvt                   0      0.00%     56.95% # Type of FU issued
system.cpu0.iq.FU_type_0::SimdMisc                  0      0.00%     56.95% # Type of FU issued
system.cpu0.iq.FU_type_0::SimdMult                  0      0.00%     56.95% # Type of FU issued
system.cpu0.iq.FU_type_0::SimdMultAcc               0      0.00%     56.95% # Type of FU issued
system.cpu0.iq.FU_type_0::SimdShift                 0      0.00%     56.95% # Type of FU issued
system.cpu0.iq.FU_type_0::SimdShiftAcc              0      0.00%     56.95% # Type of FU issued
system.cpu0.iq.FU_type_0::SimdDiv                   0      0.00%     56.95% # Type of FU issued
system.cpu0.iq.FU_type_0::SimdSqrt                  0      0.00%     56.95% # Type of FU issued
system.cpu0.iq.FU_type_0::SimdFloatAdd              0      0.00%     56.95% # Type of FU issued
system.cpu0.iq.FU_type_0::SimdFloatAlu              0      0.00%     56.95% # Type of FU issued
system.cpu0.iq.FU_type_0::SimdFloatCmp              0      0.00%     56.95% # Type of FU issued
system.cpu0.iq.FU_type_0::SimdFloatCvt              0      0.00%     56.95% # Type of FU issued
system.cpu0.iq.FU_type_0::SimdFloatDiv              0      0.00%     56.95% # Type of FU issued
system.cpu0.iq.FU_type_0::SimdFloatMisc             0      0.00%     56.95% # Type of FU issued
system.cpu0.iq.FU_type_0::SimdFloatMult             0      0.00%     56.95% # Type of FU issued
system.cpu0.iq.FU_type_0::SimdFloatMultAcc            0      0.00%     56.95% # Type of FU issued
system.cpu0.iq.FU_type_0::SimdFloatSqrt             0      0.00%     56.95% # Type of FU issued
system.cpu0.iq.FU_type_0::SimdReduceAdd             0      0.00%     56.95% # Type of FU issued
system.cpu0.iq.FU_type_0::SimdReduceAlu             0      0.00%     56.95% # Type of FU issued
system.cpu0.iq.FU_type_0::SimdReduceCmp             0      0.00%     56.95% # Type of FU issued
system.cpu0.iq.FU_type_0::SimdFloatReduceAdd            0      0.00%     56.95% # Type of FU issued
system.cpu0.iq.FU_type_0::SimdFloatReduceCmp            0      0.00%     56.95% # Type of FU issued
system.cpu0.iq.FU_type_0::SimdAes                   0      0.00%     56.95% # Type of FU issued
system.cpu0.iq.FU_type_0::SimdAesMix                0      0.00%     56.95% # Type of FU issued
system.cpu0.iq.FU_type_0::SimdSha1Hash              0      0.00%     56.95% # Type of FU issued
system.cpu0.iq.FU_type_0::SimdSha1Hash2             0      0.00%     56.95% # Type of FU issued
system.cpu0.iq.FU_type_0::SimdSha256Hash            0      0.00%     56.95% # Type of FU issued
system.cpu0.iq.FU_type_0::SimdSha256Hash2            0      0.00%     56.95% # Type of FU issued
system.cpu0.iq.FU_type_0::SimdShaSigma2             0      0.00%     56.95% # Type of FU issued
system.cpu0.iq.FU_type_0::SimdShaSigma3             0      0.00%     56.95% # Type of FU issued
system.cpu0.iq.FU_type_0::SimdPredAlu               0      0.00%     56.95% # Type of FU issued
system.cpu0.iq.FU_type_0::MemRead           434144413     31.87%     88.82% # Type of FU issued
system.cpu0.iq.FU_type_0::MemWrite          152245965     11.18%    100.00% # Type of FU issued
system.cpu0.iq.FU_type_0::FloatMemRead              9      0.00%    100.00% # Type of FU issued
system.cpu0.iq.FU_type_0::FloatMemWrite            20      0.00%    100.00% # Type of FU issued
system.cpu0.iq.FU_type_0::IprAccess                 0      0.00%    100.00% # Type of FU issued
system.cpu0.iq.FU_type_0::InstPrefetch              0      0.00%    100.00% # Type of FU issued
system.cpu0.iq.FU_type_0::total            1362230417                       # Type of FU issued
system.cpu0.iq.fp_alu_accesses                     53                       # Number of floating point alu accesses
system.cpu0.iq.fp_inst_queue_reads                104                       # Number of floating instruction queue reads
system.cpu0.iq.fp_inst_queue_wakeup_accesses           51                       # Number of floating instruction queue wakeup accesses
system.cpu0.iq.fp_inst_queue_writes                52                       # Number of floating instruction queue writes
system.cpu0.iq.fu_busy_cnt                    2786930                       # FU busy when requested
system.cpu0.iq.fu_busy_rate                  0.002046                       # FU busy rate (busy events/executed inst)
system.cpu0.iq.fu_full::No_OpClass                  0      0.00%      0.00% # attempts to use FU when none available
system.cpu0.iq.fu_full::IntAlu                 408456     14.66%     14.66% # attempts to use FU when none available
system.cpu0.iq.fu_full::IntMult                     0      0.00%     14.66% # attempts to use FU when none available
system.cpu0.iq.fu_full::IntDiv                      0      0.00%     14.66% # attempts to use FU when none available
system.cpu0.iq.fu_full::FloatAdd                    0      0.00%     14.66% # attempts to use FU when none available
system.cpu0.iq.fu_full::FloatCmp                    0      0.00%     14.66% # attempts to use FU when none available
system.cpu0.iq.fu_full::FloatCvt                    0      0.00%     14.66% # attempts to use FU when none available
system.cpu0.iq.fu_full::FloatMult                   0      0.00%     14.66% # attempts to use FU when none available
system.cpu0.iq.fu_full::FloatMultAcc                0      0.00%     14.66% # attempts to use FU when none available
system.cpu0.iq.fu_full::FloatDiv                    0      0.00%     14.66% # attempts to use FU when none available
system.cpu0.iq.fu_full::FloatMisc                   0      0.00%     14.66% # attempts to use FU when none available
system.cpu0.iq.fu_full::FloatSqrt                   0      0.00%     14.66% # attempts to use FU when none available
system.cpu0.iq.fu_full::SimdAdd                     0      0.00%     14.66% # attempts to use FU when none available
system.cpu0.iq.fu_full::SimdAddAcc                  0      0.00%     14.66% # attempts to use FU when none available
system.cpu0.iq.fu_full::SimdAlu                     0      0.00%     14.66% # attempts to use FU when none available
system.cpu0.iq.fu_full::SimdCmp                     0      0.00%     14.66% # attempts to use FU when none available
system.cpu0.iq.fu_full::SimdCvt                     0      0.00%     14.66% # attempts to use FU when none available
system.cpu0.iq.fu_full::SimdMisc                    0      0.00%     14.66% # attempts to use FU when none available
system.cpu0.iq.fu_full::SimdMult                    0      0.00%     14.66% # attempts to use FU when none available
system.cpu0.iq.fu_full::SimdMultAcc                 0      0.00%     14.66% # attempts to use FU when none available
system.cpu0.iq.fu_full::SimdShift                   0      0.00%     14.66% # attempts to use FU when none available
system.cpu0.iq.fu_full::SimdShiftAcc                0      0.00%     14.66% # attempts to use FU when none available
system.cpu0.iq.fu_full::SimdDiv                     0      0.00%     14.66% # attempts to use FU when none available
system.cpu0.iq.fu_full::SimdSqrt                    0      0.00%     14.66% # attempts to use FU when none available
system.cpu0.iq.fu_full::SimdFloatAdd                0      0.00%     14.66% # attempts to use FU when none available
system.cpu0.iq.fu_full::SimdFloatAlu                0      0.00%     14.66% # attempts to use FU when none available
system.cpu0.iq.fu_full::SimdFloatCmp                0      0.00%     14.66% # attempts to use FU when none available
system.cpu0.iq.fu_full::SimdFloatCvt                0      0.00%     14.66% # attempts to use FU when none available
system.cpu0.iq.fu_full::SimdFloatDiv                0      0.00%     14.66% # attempts to use FU when none available
system.cpu0.iq.fu_full::SimdFloatMisc               0      0.00%     14.66% # attempts to use FU when none available
system.cpu0.iq.fu_full::SimdFloatMult               0      0.00%     14.66% # attempts to use FU when none available
system.cpu0.iq.fu_full::SimdFloatMultAcc            0      0.00%     14.66% # attempts to use FU when none available
system.cpu0.iq.fu_full::SimdFloatSqrt               0      0.00%     14.66% # attempts to use FU when none available
system.cpu0.iq.fu_full::SimdReduceAdd               0      0.00%     14.66% # attempts to use FU when none available
system.cpu0.iq.fu_full::SimdReduceAlu               0      0.00%     14.66% # attempts to use FU when none available
system.cpu0.iq.fu_full::SimdReduceCmp               0      0.00%     14.66% # attempts to use FU when none available
system.cpu0.iq.fu_full::SimdFloatReduceAdd            0      0.00%     14.66% # attempts to use FU when none available
system.cpu0.iq.fu_full::SimdFloatReduceCmp            0      0.00%     14.66% # attempts to use FU when none available
system.cpu0.iq.fu_full::SimdAes                     0      0.00%     14.66% # attempts to use FU when none available
system.cpu0.iq.fu_full::SimdAesMix                  0      0.00%     14.66% # attempts to use FU when none available
system.cpu0.iq.fu_full::SimdSha1Hash                0      0.00%     14.66% # attempts to use FU when none available
system.cpu0.iq.fu_full::SimdSha1Hash2               0      0.00%     14.66% # attempts to use FU when none available
system.cpu0.iq.fu_full::SimdSha256Hash              0      0.00%     14.66% # attempts to use FU when none available
system.cpu0.iq.fu_full::SimdSha256Hash2             0      0.00%     14.66% # attempts to use FU when none available
system.cpu0.iq.fu_full::SimdShaSigma2               0      0.00%     14.66% # attempts to use FU when none available
system.cpu0.iq.fu_full::SimdShaSigma3               0      0.00%     14.66% # attempts to use FU when none available
system.cpu0.iq.fu_full::SimdPredAlu                 0      0.00%     14.66% # attempts to use FU when none available
system.cpu0.iq.fu_full::MemRead               1968365     70.63%     85.28% # attempts to use FU when none available
system.cpu0.iq.fu_full::MemWrite               410107     14.72%    100.00% # attempts to use FU when none available
system.cpu0.iq.fu_full::FloatMemRead                0      0.00%    100.00% # attempts to use FU when none available
system.cpu0.iq.fu_full::FloatMemWrite               2      0.00%    100.00% # attempts to use FU when none available
system.cpu0.iq.fu_full::IprAccess                   0      0.00%    100.00% # attempts to use FU when none available
system.cpu0.iq.fu_full::InstPrefetch                0      0.00%    100.00% # attempts to use FU when none available
system.cpu0.iq.int_alu_accesses            1360811700                       # Number of integer alu accesses
system.cpu0.iq.int_inst_queue_reads        5047466220                       # Number of integer instruction queue reads
system.cpu0.iq.int_inst_queue_wakeup_accesses   1343227234                       # Number of integer instruction queue wakeup accesses
system.cpu0.iq.int_inst_queue_writes       1411023950                       # Number of integer instruction queue writes
system.cpu0.iq.iqInstsAdded                1358537442                       # Number of instructions added to the IQ (excludes non-spec)
system.cpu0.iq.iqInstsIssued               1362230417                       # Number of instructions issued
system.cpu0.iq.iqNonSpecInstsAdded            6310381                       # Number of non-speculative instructions added to the IQ
system.cpu0.iq.iqSquashedInstsExamined       46167386                       # Number of squashed instructions iterated over during squash; mainly for profiling
system.cpu0.iq.iqSquashedInstsIssued           146969                       # Number of squashed instructions issued
system.cpu0.iq.iqSquashedNonSpecRemoved           677                       # Number of squashed non-spec instructions that were removed
system.cpu0.iq.iqSquashedOperandsExamined     20082232                       # Number of squashed operands that are examined and possibly removed from graph
system.cpu0.iq.issued_per_cycle::samples   2320071592                       # Number of insts issued each cycle
system.cpu0.iq.issued_per_cycle::mean        0.587150                       # Number of insts issued each cycle
system.cpu0.iq.issued_per_cycle::stdev       0.831215                       # Number of insts issued each cycle
system.cpu0.iq.issued_per_cycle::underflows            0      0.00%      0.00% # Number of insts issued each cycle
system.cpu0.iq.issued_per_cycle::0         1333028769     57.46%     57.46% # Number of insts issued each cycle
system.cpu0.iq.issued_per_cycle::1          714613361     30.80%     88.26% # Number of insts issued each cycle
system.cpu0.iq.issued_per_cycle::2          196143840      8.45%     96.71% # Number of insts issued each cycle
system.cpu0.iq.issued_per_cycle::3           59699225      2.57%     99.29% # Number of insts issued each cycle
system.cpu0.iq.issued_per_cycle::4           10990618      0.47%     99.76% # Number of insts issued each cycle
system.cpu0.iq.issued_per_cycle::5            2769087      0.12%     99.88% # Number of insts issued each cycle
system.cpu0.iq.issued_per_cycle::6            1596478      0.07%     99.95% # Number of insts issued each cycle
system.cpu0.iq.issued_per_cycle::7             996786      0.04%     99.99% # Number of insts issued each cycle
system.cpu0.iq.issued_per_cycle::8             233428      0.01%    100.00% # Number of insts issued each cycle
system.cpu0.iq.issued_per_cycle::overflows            0      0.00%    100.00% # Number of insts issued each cycle
system.cpu0.iq.issued_per_cycle::min_value            0                       # Number of insts issued each cycle
system.cpu0.iq.issued_per_cycle::max_value            8                       # Number of insts issued each cycle
system.cpu0.iq.issued_per_cycle::total     2320071592                       # Number of insts issued each cycle
system.cpu0.iq.rate                          0.523879                       # Inst issue rate
system.cpu0.iq.vec_alu_accesses                     0                       # Number of vector alu accesses
system.cpu0.iq.vec_inst_queue_reads                 0                       # Number of vector instruction queue reads
system.cpu0.iq.vec_inst_queue_wakeup_accesses            0                       # Number of vector instruction queue wakeup accesses
system.cpu0.iq.vec_inst_queue_writes                0                       # Number of vector instruction queue writes
system.cpu0.itb.accesses                            0                       # DTB accesses
system.cpu0.itb.hits                                0                       # DTB hits
system.cpu0.itb.misses                              0                       # DTB misses
system.cpu0.itb.read_accesses                       0                       # DTB read accesses
system.cpu0.itb.read_hits                           0                       # DTB read hits
system.cpu0.itb.read_misses                         0                       # DTB read misses
system.cpu0.itb.write_accesses                      0                       # DTB write accesses
system.cpu0.itb.write_hits                          0                       # DTB write hits
system.cpu0.itb.write_misses                        0                       # DTB write misses
system.cpu0.memDep0.conflictingLoads         19686227                       # Number of conflicting loads.
system.cpu0.memDep0.conflictingStores         1418537                       # Number of conflicting stores.
system.cpu0.memDep0.insertedLoads           429138576                       # Number of loads inserted to the mem dependence unit.
system.cpu0.memDep0.insertedStores          154669996                       # Number of stores inserted to the mem dependence unit.
system.cpu0.misc_regfile_reads                   1889                       # number of misc regfile reads
system.cpu0.misc_regfile_writes                    22                       # number of misc regfile writes
system.cpu0.numCycles                      2600277189                       # number of cpu cycles simulated
system.cpu0.numWorkItemsCompleted                   0                       # number of work items this cpu completed
system.cpu0.numWorkItemsStarted                     0                       # number of work items this cpu started
system.cpu0.quiesceCycles                     4814544                       # Total number of cycles that CPU has spent quiesced or waiting for an interrupt
system.cpu0.rename.BlockCycles              373046514                       # Number of cycles rename is blocking
system.cpu0.rename.CommittedMaps            845216361                       # Number of HB maps that are committed
system.cpu0.rename.IQFullEvents              14275552                       # Number of times rename has blocked due to IQ full
system.cpu0.rename.IdleCycles               934995584                       # Number of cycles rename is idle
system.cpu0.rename.LQFullEvents              12850295                       # Number of times rename has blocked due to LQ full
system.cpu0.rename.ROBFullEvents                38648                       # Number of times rename has blocked due to ROB full
system.cpu0.rename.RenameLookups           1700604379                       # Number of register rename lookups that rename has made
system.cpu0.rename.RenamedInsts            1384019755                       # Number of instructions processed by rename
system.cpu0.rename.RenamedOperands          901247699                       # Number of destination operands rename has renamed
system.cpu0.rename.RunCycles                956172476                       # Number of cycles rename is running
system.cpu0.rename.SQFullEvents              17407719                       # Number of times rename has blocked due to SQ full
system.cpu0.rename.SquashCycles               9900746                       # Number of cycles rename is squashing
system.cpu0.rename.UnblockCycles             45647174                       # Number of cycles rename is unblocking
system.cpu0.rename.UndoneMaps                56031271                       # Number of HB maps that are undone due to squashing
system.cpu0.rename.fp_rename_lookups               44                       # Number of floating rename lookups
system.cpu0.rename.int_rename_lookups      1700604335                       # Number of integer rename lookups
system.cpu0.rename.serializeStallCycles        309098                       # count of cycles rename stalled for serializing inst
system.cpu0.rename.serializingInsts              5896                       # count of serializing insts renamed
system.cpu0.rename.skidInsts                 32333029                       # count of insts added to the skid buffer
system.cpu0.rename.tempSerializingInsts          5896                       # count of temporary serializing insts renamed
system.cpu0.rob.rob_reads                  3639410403                       # The number of ROB reads
system.cpu0.rob.rob_writes                 2742806279                       # The number of ROB writes
system.cpu0.timesIdled                       33566426                       # Number of times that the entire CPU went into an idle state and unscheduled itself
system.cpu0.workload.numSyscalls                 1856                       # Number of system calls
system.cpu1.branchPred.BTBCorrect                   0                       # Number of correct BTB predictions (this stat may not work properly.
system.cpu1.branchPred.BTBHitPct            84.979006                       # BTB Hit Percentage
system.cpu1.branchPred.BTBHits               20361184                       # Number of BTB hits
system.cpu1.branchPred.BTBLookups            23960252                       # Number of BTB lookups
system.cpu1.branchPred.RASInCorrect                 0                       # Number of incorrect RAS predictions.
system.cpu1.branchPred.condIncorrect          2729249                       # Number of conditional branches incorrect
system.cpu1.branchPred.condPredicted         30303818                       # Number of conditional branches predicted
system.cpu1.branchPred.indirectHits           1041569                       # Number of indirect target hits.
system.cpu1.branchPred.indirectLookups        1053646                       # Number of indirect predictor lookups.
system.cpu1.branchPred.indirectMisses           12077                       # Number of indirect misses.
system.cpu1.branchPred.lookups               34752343                       # Number of BP lookups
system.cpu1.branchPred.usedRAS                      0                       # Number of times the RAS was used to get a target.
system.cpu1.branchPredindirectMispredicted        47824                       # Number of mispredicted indirect branches.
system.cpu1.commit.amos                       2099996                       # Number of atomic instructions committed
system.cpu1.commit.branchMispredicts          1942213                       # The number of times a branch was mispredicted
system.cpu1.commit.branches                  28126429                       # Number of branches committed
system.cpu1.commit.bw_lim_events              3429977                       # number cycles where commit BW limit reached
system.cpu1.commit.commitNonSpecStalls        6300655                       # The number of times commit has been forced to stall to communicate backwards
system.cpu1.commit.commitSquashedInsts       13773839                       # The number of squashed insts skipped by commit
system.cpu1.commit.committedInsts           120104371                       # Number of instructions committed
system.cpu1.commit.committedOps             122204543                       # Number of ops (including micro ops) committed
system.cpu1.commit.committed_per_cycle::samples    437211549                       # Number of insts commited each cycle
system.cpu1.commit.committed_per_cycle::mean     0.279509                       # Number of insts commited each cycle
system.cpu1.commit.committed_per_cycle::stdev     1.037627                       # Number of insts commited each cycle
system.cpu1.commit.committed_per_cycle::underflows            0      0.00%      0.00% # Number of insts commited each cycle
system.cpu1.commit.committed_per_cycle::0    386388505     88.38%     88.38% # Number of insts commited each cycle
system.cpu1.commit.committed_per_cycle::1     25435812      5.82%     94.19% # Number of insts commited each cycle
system.cpu1.commit.committed_per_cycle::2      9028197      2.06%     96.26% # Number of insts commited each cycle
system.cpu1.commit.committed_per_cycle::3      7147217      1.63%     97.89% # Number of insts commited each cycle
system.cpu1.commit.committed_per_cycle::4      2082667      0.48%     98.37% # Number of insts commited each cycle
system.cpu1.commit.committed_per_cycle::5      1018981      0.23%     98.60% # Number of insts commited each cycle
system.cpu1.commit.committed_per_cycle::6      2356054      0.54%     99.14% # Number of insts commited each cycle
system.cpu1.commit.committed_per_cycle::7       324139      0.07%     99.22% # Number of insts commited each cycle
system.cpu1.commit.committed_per_cycle::8      3429977      0.78%    100.00% # Number of insts commited each cycle
system.cpu1.commit.committed_per_cycle::overflows            0      0.00%    100.00% # Number of insts commited each cycle
system.cpu1.commit.committed_per_cycle::min_value            0                       # Number of insts commited each cycle
system.cpu1.commit.committed_per_cycle::max_value            8                       # Number of insts commited each cycle
system.cpu1.commit.committed_per_cycle::total    437211549                       # Number of insts commited each cycle
system.cpu1.commit.fp_insts                        12                       # Number of committed floating point instructions.
system.cpu1.commit.function_calls             1799027                       # Number of function calls committed.
system.cpu1.commit.int_insts                116640882                       # Number of committed integer instructions.
system.cpu1.commit.loads                     30181454                       # Number of loads committed
system.cpu1.commit.membars                    4200118                       # Number of memory barriers committed
system.cpu1.commit.op_class_0::No_OpClass      4200118      3.44%      3.44% # Class of committed instruction
system.cpu1.commit.op_class_0::IntAlu        76694130     62.76%     66.20% # Class of committed instruction
system.cpu1.commit.op_class_0::IntMult             44      0.00%     66.20% # Class of committed instruction
system.cpu1.commit.op_class_0::IntDiv              88      0.00%     66.20% # Class of committed instruction
system.cpu1.commit.op_class_0::FloatAdd             0      0.00%     66.20% # Class of committed instruction
system.cpu1.commit.op_class_0::FloatCmp             0      0.00%     66.20% # Class of committed instruction
system.cpu1.commit.op_class_0::FloatCvt             0      0.00%     66.20% # Class of committed instruction
system.cpu1.commit.op_class_0::FloatMult            0      0.00%     66.20% # Class of committed instruction
system.cpu1.commit.op_class_0::FloatMultAcc            0      0.00%     66.20% # Class of committed instruction
system.cpu1.commit.op_class_0::FloatDiv             0      0.00%     66.20% # Class of committed instruction
system.cpu1.commit.op_class_0::FloatMisc            0      0.00%     66.20% # Class of committed instruction
system.cpu1.commit.op_class_0::FloatSqrt            0      0.00%     66.20% # Class of committed instruction
system.cpu1.commit.op_class_0::SimdAdd              0      0.00%     66.20% # Class of committed instruction
system.cpu1.commit.op_class_0::SimdAddAcc            0      0.00%     66.20% # Class of committed instruction
system.cpu1.commit.op_class_0::SimdAlu              0      0.00%     66.20% # Class of committed instruction
system.cpu1.commit.op_class_0::SimdCmp              0      0.00%     66.20% # Class of committed instruction
system.cpu1.commit.op_class_0::SimdCvt              0      0.00%     66.20% # Class of committed instruction
system.cpu1.commit.op_class_0::SimdMisc             0      0.00%     66.20% # Class of committed instruction
system.cpu1.commit.op_class_0::SimdMult             0      0.00%     66.20% # Class of committed instruction
system.cpu1.commit.op_class_0::SimdMultAcc            0      0.00%     66.20% # Class of committed instruction
system.cpu1.commit.op_class_0::SimdShift            0      0.00%     66.20% # Class of committed instruction
system.cpu1.commit.op_class_0::SimdShiftAcc            0      0.00%     66.20% # Class of committed instruction
system.cpu1.commit.op_class_0::SimdDiv              0      0.00%     66.20% # Class of committed instruction
system.cpu1.commit.op_class_0::SimdSqrt             0      0.00%     66.20% # Class of committed instruction
system.cpu1.commit.op_class_0::SimdFloatAdd            0      0.00%     66.20% # Class of committed instruction
system.cpu1.commit.op_class_0::SimdFloatAlu            0      0.00%     66.20% # Class of committed instruction
system.cpu1.commit.op_class_0::SimdFloatCmp            0      0.00%     66.20% # Class of committed instruction
system.cpu1.commit.op_class_0::SimdFloatCvt            0      0.00%     66.20% # Class of committed instruction
system.cpu1.commit.op_class_0::SimdFloatDiv            0      0.00%     66.20% # Class of committed instruction
system.cpu1.commit.op_class_0::SimdFloatMisc            0      0.00%     66.20% # Class of committed instruction
system.cpu1.commit.op_class_0::SimdFloatMult            0      0.00%     66.20% # Class of committed instruction
system.cpu1.commit.op_class_0::SimdFloatMultAcc            0      0.00%     66.20% # Class of committed instruction
system.cpu1.commit.op_class_0::SimdFloatSqrt            0      0.00%     66.20% # Class of committed instruction
system.cpu1.commit.op_class_0::SimdReduceAdd            0      0.00%     66.20% # Class of committed instruction
system.cpu1.commit.op_class_0::SimdReduceAlu            0      0.00%     66.20% # Class of committed instruction
system.cpu1.commit.op_class_0::SimdReduceCmp            0      0.00%     66.20% # Class of committed instruction
system.cpu1.commit.op_class_0::SimdFloatReduceAdd            0      0.00%     66.20% # Class of committed instruction
system.cpu1.commit.op_class_0::SimdFloatReduceCmp            0      0.00%     66.20% # Class of committed instruction
system.cpu1.commit.op_class_0::SimdAes              0      0.00%     66.20% # Class of committed instruction
system.cpu1.commit.op_class_0::SimdAesMix            0      0.00%     66.20% # Class of committed instruction
system.cpu1.commit.op_class_0::SimdSha1Hash            0      0.00%     66.20% # Class of committed instruction
system.cpu1.commit.op_class_0::SimdSha1Hash2            0      0.00%     66.20% # Class of committed instruction
system.cpu1.commit.op_class_0::SimdSha256Hash            0      0.00%     66.20% # Class of committed instruction
system.cpu1.commit.op_class_0::SimdSha256Hash2            0      0.00%     66.20% # Class of committed instruction
system.cpu1.commit.op_class_0::SimdShaSigma2            0      0.00%     66.20% # Class of committed instruction
system.cpu1.commit.op_class_0::SimdShaSigma3            0      0.00%     66.20% # Class of committed instruction
system.cpu1.commit.op_class_0::SimdPredAlu            0      0.00%     66.20% # Class of committed instruction
system.cpu1.commit.op_class_0::MemRead       32281450     26.42%     92.61% # Class of committed instruction
system.cpu1.commit.op_class_0::MemWrite       9028701      7.39%    100.00% # Class of committed instruction
system.cpu1.commit.op_class_0::FloatMemRead            0      0.00%    100.00% # Class of committed instruction
system.cpu1.commit.op_class_0::FloatMemWrite           12      0.00%    100.00% # Class of committed instruction
system.cpu1.commit.op_class_0::IprAccess            0      0.00%    100.00% # Class of committed instruction
system.cpu1.commit.op_class_0::InstPrefetch            0      0.00%    100.00% # Class of committed instruction
system.cpu1.commit.op_class_0::total        122204543                       # Class of committed instruction
system.cpu1.commit.refs                      41310163                       # Number of memory references committed
system.cpu1.commit.swp_count                        0                       # Number of s/w prefetches committed
system.cpu1.commit.vec_insts                        0                       # Number of committed Vector instructions.
system.cpu1.committedInsts                  120104371                       # Number of Instructions Simulated
system.cpu1.committedOps                    122204543                       # Number of Ops (including micro ops) Simulated
system.cpu1.cpi                              3.675945                       # CPI: Cycles Per Instruction
system.cpu1.cpi_total                        3.675945                       # CPI: Total CPI of All Threads
system.cpu1.decode.BlockedCycles            344152031                       # Number of cycles decode is blocked
system.cpu1.decode.BranchMispred               837938                       # Number of times decode detected a branch misprediction
system.cpu1.decode.BranchResolved            19384395                       # Number of times decode resolved a branch
system.cpu1.decode.DecodedInsts             142854777                       # Number of instructions handled by decode
system.cpu1.decode.IdleCycles                22569471                       # Number of cycles decode is idle
system.cpu1.decode.RunCycles                 66556539                       # Number of cycles decode is running
system.cpu1.decode.SquashCycles               1943381                       # Number of cycles decode is squashing
system.cpu1.decode.SquashedInsts              2031427                       # Number of squashed instructions handled by decode
system.cpu1.decode.UnblockCycles              4963086                       # Number of cycles decode is unblocking
system.cpu1.dtb.accesses                            0                       # DTB accesses
system.cpu1.dtb.hits                                0                       # DTB hits
system.cpu1.dtb.misses                              0                       # DTB misses
system.cpu1.dtb.read_accesses                       0                       # DTB read accesses
system.cpu1.dtb.read_hits                           0                       # DTB read hits
system.cpu1.dtb.read_misses                         0                       # DTB read misses
system.cpu1.dtb.write_accesses                      0                       # DTB write accesses
system.cpu1.dtb.write_hits                          0                       # DTB write hits
system.cpu1.dtb.write_misses                        0                       # DTB write misses
system.cpu1.fetch.Branches                   34752343                       # Number of branches that fetch encountered
system.cpu1.fetch.CacheLines                 21122112                       # Number of cache lines fetched
system.cpu1.fetch.Cycles                    414315785                       # Number of cycles fetch has run and was not squashing or blocked
system.cpu1.fetch.IcacheSquashes               239785                       # Number of outstanding Icache misses that were squashed
system.cpu1.fetch.Insts                     147752735                       # Number of instructions fetch has processed
system.cpu1.fetch.MiscStallCycles                   1                       # Number of cycles fetch has spent waiting on interrupts, or bad addresses, or out of MSHRs
system.cpu1.fetch.SquashCycles                5460834                       # Number of cycles fetch has spent squashing
system.cpu1.fetch.branchRate                 0.078715                       # Number of branch fetches per cycle
system.cpu1.fetch.icacheStallCycles          23138305                       # Number of cycles fetch is stalled on an Icache miss
system.cpu1.fetch.predictedBranches          21402753                       # Number of branches that fetch has predicted taken
system.cpu1.fetch.rate                       0.334663                       # Number of inst fetches per cycle
system.cpu1.fetch.rateDist::samples         440184508                       # Number of instructions fetched each cycle (Total)
system.cpu1.fetch.rateDist::mean             0.340433                       # Number of instructions fetched each cycle (Total)
system.cpu1.fetch.rateDist::stdev            0.760052                       # Number of instructions fetched each cycle (Total)
system.cpu1.fetch.rateDist::underflows              0      0.00%      0.00% # Number of instructions fetched each cycle (Total)
system.cpu1.fetch.rateDist::0               344082942     78.17%     78.17% # Number of instructions fetched each cycle (Total)
system.cpu1.fetch.rateDist::1                61409899     13.95%     92.12% # Number of instructions fetched each cycle (Total)
system.cpu1.fetch.rateDist::2                19887721      4.52%     96.64% # Number of instructions fetched each cycle (Total)
system.cpu1.fetch.rateDist::3                11144035      2.53%     99.17% # Number of instructions fetched each cycle (Total)
system.cpu1.fetch.rateDist::4                 3122231      0.71%     99.88% # Number of instructions fetched each cycle (Total)
system.cpu1.fetch.rateDist::5                  479681      0.11%     99.99% # Number of instructions fetched each cycle (Total)
system.cpu1.fetch.rateDist::6                   57715      0.01%    100.00% # Number of instructions fetched each cycle (Total)
system.cpu1.fetch.rateDist::7                       5      0.00%    100.00% # Number of instructions fetched each cycle (Total)
system.cpu1.fetch.rateDist::8                     279      0.00%    100.00% # Number of instructions fetched each cycle (Total)
system.cpu1.fetch.rateDist::overflows               0      0.00%    100.00% # Number of instructions fetched each cycle (Total)
system.cpu1.fetch.rateDist::min_value               0                       # Number of instructions fetched each cycle (Total)
system.cpu1.fetch.rateDist::max_value               8                       # Number of instructions fetched each cycle (Total)
system.cpu1.fetch.rateDist::total           440184508                       # Number of instructions fetched each cycle (Total)
system.cpu1.fp_regfile_reads                       12                       # number of floating regfile reads
system.cpu1.idleCycles                        1312593                       # Total number of cycles that the CPU has spent unscheduled due to idling
system.cpu1.iew.branchMispredicts             2013682                       # Number of branch mispredicts detected at execute
system.cpu1.iew.exec_branches                30142782                       # Number of branches executed
system.cpu1.iew.exec_nop                            0                       # number of nop insts executed
system.cpu1.iew.exec_rate                    0.297401                       # Inst execution rate
system.cpu1.iew.exec_refs                    44649133                       # number of memory reference insts executed
system.cpu1.iew.exec_stores                  11465679                       # Number of stores executed
system.cpu1.iew.exec_swp                            0                       # number of swp insts executed
system.cpu1.iew.iewBlockCycles              283097984                       # Number of cycles IEW is blocking
system.cpu1.iew.iewDispLoadInsts             33913130                       # Number of dispatched load instructions
system.cpu1.iew.iewDispNonSpecInsts           2100696                       # Number of dispatched non-speculative instructions
system.cpu1.iew.iewDispSquashedInsts          2334110                       # Number of squashed instructions skipped by dispatch
system.cpu1.iew.iewDispStoreInsts            11712449                       # Number of dispatched store instructions
system.cpu1.iew.iewDispatchedInsts          135934983                       # Number of instructions dispatched to IQ
system.cpu1.iew.iewExecLoadInsts             33183454                       # Number of load instructions executed
system.cpu1.iew.iewExecSquashedInsts          2092077                       # Number of squashed instructions skipped in execute
system.cpu1.iew.iewExecutedInsts            131301632                       # Number of executed instructions
system.cpu1.iew.iewIQFullEvents               1864210                       # Number of times the IQ has become full, causing a stall
system.cpu1.iew.iewIdleCycles                       0                       # Number of cycles IEW is idle
system.cpu1.iew.iewLSQFullEvents              9877985                       # Number of times the LSQ has become full, causing a stall
system.cpu1.iew.iewSquashCycles               1943381                       # Number of cycles IEW is squashing
system.cpu1.iew.iewUnblockCycles             14209008                       # Number of cycles IEW is unblocking
system.cpu1.iew.lsq.thread0.blockedLoads            0                       # Number of blocked loads due to partial load-store forwarding
system.cpu1.iew.lsq.thread0.cacheBlocked        68205                       # Number of times an access to memory failed due to the cache being blocked
system.cpu1.iew.lsq.thread0.forwLoads          703376                       # Number of loads that had data forwarded from stores
system.cpu1.iew.lsq.thread0.ignoredResponses        22934                       # Number of memory responses ignored because the instruction is squashed
system.cpu1.iew.lsq.thread0.invAddrLoads            0                       # Number of loads ignored due to an invalid address
system.cpu1.iew.lsq.thread0.invAddrSwpfs            0                       # Number of software prefetches ignored due to an invalid address
system.cpu1.iew.lsq.thread0.memOrderViolation         1592                       # Number of memory ordering violations
system.cpu1.iew.lsq.thread0.rescheduledLoads        10130                       # Number of loads that were rescheduled
system.cpu1.iew.lsq.thread0.squashedLoads      3731676                       # Number of loads squashed
system.cpu1.iew.lsq.thread0.squashedStores       583740                       # Number of stores squashed
system.cpu1.iew.memOrderViolationEvents          1592                       # Number of memory order violations
system.cpu1.iew.predictedNotTakenIncorrect       532737                       # Number of branches that were predicted not taken incorrectly
system.cpu1.iew.predictedTakenIncorrect       1480945                       # Number of branches that were predicted taken incorrectly
system.cpu1.iew.wb_consumers                 73883960                       # num instructions consuming a value
system.cpu1.iew.wb_count                    130128297                       # cumulative count of insts written-back
system.cpu1.iew.wb_fanout                    0.860193                       # average fanout of values written-back
system.cpu1.iew.wb_producers                 63554494                       # num instructions producing a value
system.cpu1.iew.wb_rate                      0.294743                       # insts written-back per cycle
system.cpu1.iew.wb_sent                     130178647                       # cumulative count of insts sent to commit
system.cpu1.int_regfile_reads               166848404                       # number of integer regfile reads
system.cpu1.int_regfile_writes               87472955                       # number of integer regfile writes
system.cpu1.ipc                              0.272039                       # IPC: Instructions Per Cycle
system.cpu1.ipc_total                        0.272039                       # IPC: Total IPC of All Threads
system.cpu1.iq.FU_type_0::No_OpClass          4200214      3.15%      3.15% # Type of FU issued
system.cpu1.iq.FU_type_0::IntAlu             83911437     62.91%     66.05% # Type of FU issued
system.cpu1.iq.FU_type_0::IntMult                  48      0.00%     66.05% # Type of FU issued
system.cpu1.iq.FU_type_0::IntDiv                   90      0.00%     66.05% # Type of FU issued
system.cpu1.iq.FU_type_0::FloatAdd                  0      0.00%     66.05% # Type of FU issued
system.cpu1.iq.FU_type_0::FloatCmp                  0      0.00%     66.05% # Type of FU issued
system.cpu1.iq.FU_type_0::FloatCvt                  0      0.00%     66.05% # Type of FU issued
system.cpu1.iq.FU_type_0::FloatMult                 0      0.00%     66.05% # Type of FU issued
system.cpu1.iq.FU_type_0::FloatMultAcc              0      0.00%     66.05% # Type of FU issued
system.cpu1.iq.FU_type_0::FloatDiv                  0      0.00%     66.05% # Type of FU issued
system.cpu1.iq.FU_type_0::FloatMisc                 0      0.00%     66.05% # Type of FU issued
system.cpu1.iq.FU_type_0::FloatSqrt                 0      0.00%     66.05% # Type of FU issued
system.cpu1.iq.FU_type_0::SimdAdd                   0      0.00%     66.05% # Type of FU issued
system.cpu1.iq.FU_type_0::SimdAddAcc                0      0.00%     66.05% # Type of FU issued
system.cpu1.iq.FU_type_0::SimdAlu                   0      0.00%     66.05% # Type of FU issued
system.cpu1.iq.FU_type_0::SimdCmp                   0      0.00%     66.05% # Type of FU issued
system.cpu1.iq.FU_type_0::SimdCvt                   0      0.00%     66.05% # Type of FU issued
system.cpu1.iq.FU_type_0::SimdMisc                  0      0.00%     66.05% # Type of FU issued
system.cpu1.iq.FU_type_0::SimdMult                  0      0.00%     66.05% # Type of FU issued
system.cpu1.iq.FU_type_0::SimdMultAcc               0      0.00%     66.05% # Type of FU issued
system.cpu1.iq.FU_type_0::SimdShift                 0      0.00%     66.05% # Type of FU issued
system.cpu1.iq.FU_type_0::SimdShiftAcc              0      0.00%     66.05% # Type of FU issued
system.cpu1.iq.FU_type_0::SimdDiv                   0      0.00%     66.05% # Type of FU issued
system.cpu1.iq.FU_type_0::SimdSqrt                  0      0.00%     66.05% # Type of FU issued
system.cpu1.iq.FU_type_0::SimdFloatAdd              0      0.00%     66.05% # Type of FU issued
system.cpu1.iq.FU_type_0::SimdFloatAlu              0      0.00%     66.05% # Type of FU issued
system.cpu1.iq.FU_type_0::SimdFloatCmp              0      0.00%     66.05% # Type of FU issued
system.cpu1.iq.FU_type_0::SimdFloatCvt              0      0.00%     66.05% # Type of FU issued
system.cpu1.iq.FU_type_0::SimdFloatDiv              0      0.00%     66.05% # Type of FU issued
system.cpu1.iq.FU_type_0::SimdFloatMisc             0      0.00%     66.05% # Type of FU issued
system.cpu1.iq.FU_type_0::SimdFloatMult             0      0.00%     66.05% # Type of FU issued
system.cpu1.iq.FU_type_0::SimdFloatMultAcc            0      0.00%     66.05% # Type of FU issued
system.cpu1.iq.FU_type_0::SimdFloatSqrt             0      0.00%     66.05% # Type of FU issued
system.cpu1.iq.FU_type_0::SimdReduceAdd             0      0.00%     66.05% # Type of FU issued
system.cpu1.iq.FU_type_0::SimdReduceAlu             0      0.00%     66.05% # Type of FU issued
system.cpu1.iq.FU_type_0::SimdReduceCmp             0      0.00%     66.05% # Type of FU issued
system.cpu1.iq.FU_type_0::SimdFloatReduceAdd            0      0.00%     66.05% # Type of FU issued
system.cpu1.iq.FU_type_0::SimdFloatReduceCmp            0      0.00%     66.05% # Type of FU issued
system.cpu1.iq.FU_type_0::SimdAes                   0      0.00%     66.05% # Type of FU issued
system.cpu1.iq.FU_type_0::SimdAesMix                0      0.00%     66.05% # Type of FU issued
system.cpu1.iq.FU_type_0::SimdSha1Hash              0      0.00%     66.05% # Type of FU issued
system.cpu1.iq.FU_type_0::SimdSha1Hash2             0      0.00%     66.05% # Type of FU issued
system.cpu1.iq.FU_type_0::SimdSha256Hash            0      0.00%     66.05% # Type of FU issued
system.cpu1.iq.FU_type_0::SimdSha256Hash2            0      0.00%     66.05% # Type of FU issued
system.cpu1.iq.FU_type_0::SimdShaSigma2             0      0.00%     66.05% # Type of FU issued
system.cpu1.iq.FU_type_0::SimdShaSigma3             0      0.00%     66.05% # Type of FU issued
system.cpu1.iq.FU_type_0::SimdPredAlu               0      0.00%     66.05% # Type of FU issued
system.cpu1.iq.FU_type_0::MemRead            35878868     26.90%     92.95% # Type of FU issued
system.cpu1.iq.FU_type_0::MemWrite            9403040      7.05%    100.00% # Type of FU issued
system.cpu1.iq.FU_type_0::FloatMemRead              0      0.00%    100.00% # Type of FU issued
system.cpu1.iq.FU_type_0::FloatMemWrite            12      0.00%    100.00% # Type of FU issued
system.cpu1.iq.FU_type_0::IprAccess                 0      0.00%    100.00% # Type of FU issued
system.cpu1.iq.FU_type_0::InstPrefetch              0      0.00%    100.00% # Type of FU issued
system.cpu1.iq.FU_type_0::total             133393709                       # Type of FU issued
system.cpu1.iq.fp_alu_accesses                     14                       # Number of floating point alu accesses
system.cpu1.iq.fp_inst_queue_reads                 26                       # Number of floating instruction queue reads
system.cpu1.iq.fp_inst_queue_wakeup_accesses           12                       # Number of floating instruction queue wakeup accesses
system.cpu1.iq.fp_inst_queue_writes                12                       # Number of floating instruction queue writes
system.cpu1.iq.fu_busy_cnt                    2651750                       # FU busy when requested
system.cpu1.iq.fu_busy_rate                  0.019879                       # FU busy rate (busy events/executed inst)
system.cpu1.iq.fu_full::No_OpClass                  0      0.00%      0.00% # attempts to use FU when none available
system.cpu1.iq.fu_full::IntAlu                 444448     16.76%     16.76% # attempts to use FU when none available
system.cpu1.iq.fu_full::IntMult                     0      0.00%     16.76% # attempts to use FU when none available
system.cpu1.iq.fu_full::IntDiv                      0      0.00%     16.76% # attempts to use FU when none available
system.cpu1.iq.fu_full::FloatAdd                    0      0.00%     16.76% # attempts to use FU when none available
system.cpu1.iq.fu_full::FloatCmp                    0      0.00%     16.76% # attempts to use FU when none available
system.cpu1.iq.fu_full::FloatCvt                    0      0.00%     16.76% # attempts to use FU when none available
system.cpu1.iq.fu_full::FloatMult                   0      0.00%     16.76% # attempts to use FU when none available
system.cpu1.iq.fu_full::FloatMultAcc                0      0.00%     16.76% # attempts to use FU when none available
system.cpu1.iq.fu_full::FloatDiv                    0      0.00%     16.76% # attempts to use FU when none available
system.cpu1.iq.fu_full::FloatMisc                   0      0.00%     16.76% # attempts to use FU when none available
system.cpu1.iq.fu_full::FloatSqrt                   0      0.00%     16.76% # attempts to use FU when none available
system.cpu1.iq.fu_full::SimdAdd                     0      0.00%     16.76% # attempts to use FU when none available
system.cpu1.iq.fu_full::SimdAddAcc                  0      0.00%     16.76% # attempts to use FU when none available
system.cpu1.iq.fu_full::SimdAlu                     0      0.00%     16.76% # attempts to use FU when none available
system.cpu1.iq.fu_full::SimdCmp                     0      0.00%     16.76% # attempts to use FU when none available
system.cpu1.iq.fu_full::SimdCvt                     0      0.00%     16.76% # attempts to use FU when none available
system.cpu1.iq.fu_full::SimdMisc                    0      0.00%     16.76% # attempts to use FU when none available
system.cpu1.iq.fu_full::SimdMult                    0      0.00%     16.76% # attempts to use FU when none available
system.cpu1.iq.fu_full::SimdMultAcc                 0      0.00%     16.76% # attempts to use FU when none available
system.cpu1.iq.fu_full::SimdShift                   0      0.00%     16.76% # attempts to use FU when none available
system.cpu1.iq.fu_full::SimdShiftAcc                0      0.00%     16.76% # attempts to use FU when none available
system.cpu1.iq.fu_full::SimdDiv                     0      0.00%     16.76% # attempts to use FU when none available
system.cpu1.iq.fu_full::SimdSqrt                    0      0.00%     16.76% # attempts to use FU when none available
system.cpu1.iq.fu_full::SimdFloatAdd                0      0.00%     16.76% # attempts to use FU when none available
system.cpu1.iq.fu_full::SimdFloatAlu                0      0.00%     16.76% # attempts to use FU when none available
system.cpu1.iq.fu_full::SimdFloatCmp                0      0.00%     16.76% # attempts to use FU when none available
system.cpu1.iq.fu_full::SimdFloatCvt                0      0.00%     16.76% # attempts to use FU when none available
system.cpu1.iq.fu_full::SimdFloatDiv                0      0.00%     16.76% # attempts to use FU when none available
system.cpu1.iq.fu_full::SimdFloatMisc               0      0.00%     16.76% # attempts to use FU when none available
system.cpu1.iq.fu_full::SimdFloatMult               0      0.00%     16.76% # attempts to use FU when none available
system.cpu1.iq.fu_full::SimdFloatMultAcc            0      0.00%     16.76% # attempts to use FU when none available
system.cpu1.iq.fu_full::SimdFloatSqrt               0      0.00%     16.76% # attempts to use FU when none available
system.cpu1.iq.fu_full::SimdReduceAdd               0      0.00%     16.76% # attempts to use FU when none available
system.cpu1.iq.fu_full::SimdReduceAlu               0      0.00%     16.76% # attempts to use FU when none available
system.cpu1.iq.fu_full::SimdReduceCmp               0      0.00%     16.76% # attempts to use FU when none available
system.cpu1.iq.fu_full::SimdFloatReduceAdd            0      0.00%     16.76% # attempts to use FU when none available
system.cpu1.iq.fu_full::SimdFloatReduceCmp            0      0.00%     16.76% # attempts to use FU when none available
system.cpu1.iq.fu_full::SimdAes                     0      0.00%     16.76% # attempts to use FU when none available
system.cpu1.iq.fu_full::SimdAesMix                  0      0.00%     16.76% # attempts to use FU when none available
system.cpu1.iq.fu_full::SimdSha1Hash                0      0.00%     16.76% # attempts to use FU when none available
system.cpu1.iq.fu_full::SimdSha1Hash2               0      0.00%     16.76% # attempts to use FU when none available
system.cpu1.iq.fu_full::SimdSha256Hash              0      0.00%     16.76% # attempts to use FU when none available
system.cpu1.iq.fu_full::SimdSha256Hash2             0      0.00%     16.76% # attempts to use FU when none available
system.cpu1.iq.fu_full::SimdShaSigma2               0      0.00%     16.76% # attempts to use FU when none available
system.cpu1.iq.fu_full::SimdShaSigma3               0      0.00%     16.76% # attempts to use FU when none available
system.cpu1.iq.fu_full::SimdPredAlu                 0      0.00%     16.76% # attempts to use FU when none available
system.cpu1.iq.fu_full::MemRead               1826575     68.88%     85.64% # attempts to use FU when none available
system.cpu1.iq.fu_full::MemWrite               380725     14.36%    100.00% # attempts to use FU when none available
[...]
system.cpu1.dcache.WriteReq_misses::.cpu1.data      8541008                       # number of WriteReq misses
system.cpu1.dcache.WriteReq_misses::total      8541008                       # number of WriteReq misses
system.cpu1.dcache.WriteReq_miss_latency::.cpu1.data 528561482647                       # number of WriteReq miss cycles
system.cpu1.dcache.WriteReq_miss_latency::total 528561482647                       # number of WriteReq miss cycles
system.cpu1.dcache.WriteReq_accesses::.cpu1.data     13794176                       # number of WriteReq accesses(hits+misses)
system.cpu1.dcache.WriteReq_accesses::total     13794176                       # number of WriteReq accesses(hits+misses)
system.cpu1.dcache.WriteReq_miss_rate::.cpu1.data     0.619175                       # miss rate for WriteReq accesses
system.cpu1.dcache.WriteReq_miss_rate::total     0.619175                       # miss rate for WriteReq accesses
system.cpu1.dcache.WriteReq_avg_miss_latency::.cpu1.data 61885.140799                       # average WriteReq miss latency
system.cpu1.dcache.WriteReq_avg_miss_latency::total 61885.140799                       # average WriteReq miss latency
system.cpu1.dcache.WriteReq_mshr_hits::.cpu1.data      7647586                       # number of WriteReq MSHR hits
system.cpu1.dcache.WriteReq_mshr_hits::total      7647586                       # number of WriteReq MSHR hits
system.cpu1.dcache.WriteReq_mshr_misses::.cpu1.data       893422                       # number of WriteReq MSHR misses
system.cpu1.dcache.WriteReq_mshr_misses::total       893422                       # number of WriteReq MSHR misses
system.cpu1.dcache.WriteReq_mshr_miss_latency::.cpu1.data  65591543707                       # number of WriteReq MSHR miss cycles
system.cpu1.dcache.WriteReq_mshr_miss_latency::total  65591543707                       # number of WriteReq MSHR miss cycles
system.cpu1.dcache.WriteReq_mshr_miss_rate::.cpu1.data     0.064768                       # mshr miss rate for WriteReq accesses
system.cpu1.dcache.WriteReq_mshr_miss_rate::total     0.064768                       # mshr miss rate for WriteReq accesses
system.cpu1.dcache.WriteReq_avg_mshr_miss_latency::.cpu1.data 73416.083001                       # average WriteReq mshr miss latency
system.cpu1.dcache.WriteReq_avg_mshr_miss_latency::total 73416.083001                       # average WriteReq mshr miss latency
system.cpu1.dcache.LoadLockedReq_hits::.cpu1.data        72945                       # number of LoadLockedReq hits
system.cpu1.dcache.LoadLockedReq_hits::total        72945                       # number of LoadLockedReq hits
system.cpu1.dcache.LoadLockedReq_misses::.cpu1.data          711                       # number of LoadLockedReq misses
system.cpu1.dcache.LoadLockedReq_misses::total          711                       # number of LoadLockedReq misses
system.cpu1.dcache.LoadLockedReq_miss_latency::.cpu1.data     27928500                       # number of LoadLockedReq miss cycles
system.cpu1.dcache.LoadLockedReq_miss_latency::total     27928500                       # number of LoadLockedReq miss cycles
system.cpu1.dcache.LoadLockedReq_accesses::.cpu1.data        73656                       # number of LoadLockedReq accesses(hits+misses)
system.cpu1.dcache.LoadLockedReq_accesses::total        73656                       # number of LoadLockedReq accesses(hits+misses)
system.cpu1.dcache.LoadLockedReq_miss_rate::.cpu1.data     0.009653                       # miss rate for LoadLockedReq accesses
system.cpu1.dcache.LoadLockedReq_miss_rate::total     0.009653                       # miss rate for LoadLockedReq accesses
system.cpu1.dcache.LoadLockedReq_avg_miss_latency::.cpu1.data 39280.590717                       # average LoadLockedReq miss latency
system.cpu1.dcache.LoadLockedReq_avg_miss_latency::total 39280.590717                       # average LoadLockedReq miss latency
system.cpu1.dcache.LoadLockedReq_mshr_hits::.cpu1.data          111                       # number of LoadLockedReq MSHR hits
system.cpu1.dcache.LoadLockedReq_mshr_hits::total          111                       # number of LoadLockedReq MSHR hits
system.cpu1.dcache.LoadLockedReq_mshr_misses::.cpu1.data          600                       # number of LoadLockedReq MSHR misses
system.cpu1.dcache.LoadLockedReq_mshr_misses::total          600                       # number of LoadLockedReq MSHR misses
system.cpu1.dcache.LoadLockedReq_mshr_miss_latency::.cpu1.data     22725500                       # number of LoadLockedReq MSHR miss cycles
system.cpu1.dcache.LoadLockedReq_mshr_miss_latency::total     22725500                       # number of LoadLockedReq MSHR miss cycles
system.cpu1.dcache.LoadLockedReq_mshr_miss_rate::.cpu1.data     0.008146                       # mshr miss rate for LoadLockedReq accesses
system.cpu1.dcache.LoadLockedReq_mshr_miss_rate::total     0.008146                       # mshr miss rate for LoadLockedReq accesses
system.cpu1.dcache.LoadLockedReq_avg_mshr_miss_latency::.cpu1.data 37875.833333                       # average LoadLockedReq mshr miss latency
system.cpu1.dcache.LoadLockedReq_avg_mshr_miss_latency::total 37875.833333                       # average LoadLockedReq mshr miss latency
system.cpu1.dcache.StoreCondReq_hits::.cpu1.data        70664                       # number of StoreCondReq hits
system.cpu1.dcache.StoreCondReq_hits::total        70664                       # number of StoreCondReq hits
system.cpu1.dcache.StoreCondReq_misses::.cpu1.data         1775                       # number of StoreCondReq misses
system.cpu1.dcache.StoreCondReq_misses::total         1775                       # number of StoreCondReq misses
system.cpu1.dcache.StoreCondReq_miss_latency::.cpu1.data     12172500                       # number of StoreCondReq miss cycles
system.cpu1.dcache.StoreCondReq_miss_latency::total     12172500                       # number of StoreCondReq miss cycles
system.cpu1.dcache.StoreCondReq_accesses::.cpu1.data        72439                       # number of StoreCondReq accesses(hits+misses)
system.cpu1.dcache.StoreCondReq_accesses::total        72439                       # number of StoreCondReq accesses(hits+misses)
system.cpu1.dcache.StoreCondReq_miss_rate::.cpu1.data     0.024503                       # miss rate for StoreCondReq accesses
system.cpu1.dcache.StoreCondReq_miss_rate::total     0.024503                       # miss rate for StoreCondReq accesses
system.cpu1.dcache.StoreCondReq_avg_miss_latency::.cpu1.data  6857.746479                       # average StoreCondReq miss latency
system.cpu1.dcache.StoreCondReq_avg_miss_latency::total  6857.746479                       # average StoreCondReq miss latency
system.cpu1.dcache.StoreCondReq_mshr_misses::.cpu1.data         1768                       # number of StoreCondReq MSHR misses
system.cpu1.dcache.StoreCondReq_mshr_misses::total         1768                       # number of StoreCondReq MSHR misses
system.cpu1.dcache.StoreCondReq_mshr_miss_latency::.cpu1.data     10430500                       # number of StoreCondReq MSHR miss cycles
system.cpu1.dcache.StoreCondReq_mshr_miss_latency::total     10430500                       # number of StoreCondReq MSHR miss cycles
system.cpu1.dcache.StoreCondReq_mshr_miss_rate::.cpu1.data     0.024407                       # mshr miss rate for StoreCondReq accesses
system.cpu1.dcache.StoreCondReq_mshr_miss_rate::total     0.024407                       # mshr miss rate for StoreCondReq accesses
system.cpu1.dcache.StoreCondReq_avg_mshr_miss_latency::.cpu1.data  5899.604072                       # average StoreCondReq mshr miss latency
system.cpu1.dcache.StoreCondReq_avg_mshr_miss_latency::total  5899.604072                       # average StoreCondReq mshr miss latency
system.cpu1.dcache.StoreCondFailReq_miss_latency::.cpu1.data       381500                       # number of StoreCondFailReq miss cycles
system.cpu1.dcache.StoreCondFailReq_miss_latency::total       381500                       # number of StoreCondFailReq miss cycles
system.cpu1.dcache.StoreCondFailReq_avg_miss_latency::.cpu1.data          inf                       # average StoreCondFailReq miss latency
system.cpu1.dcache.StoreCondFailReq_avg_miss_latency::total          inf                       # average StoreCondFailReq miss latency
system.cpu1.dcache.StoreCondFailReq_mshr_miss_latency::.cpu1.data       355500                       # number of StoreCondFailReq MSHR miss cycles
system.cpu1.dcache.StoreCondFailReq_mshr_miss_latency::total       355500                       # number of StoreCondFailReq MSHR miss cycles
system.cpu1.dcache.StoreCondFailReq_avg_mshr_miss_latency::.cpu1.data          inf                       # average StoreCondFailReq mshr miss latency
system.cpu1.dcache.StoreCondFailReq_avg_mshr_miss_latency::total          inf                       # average StoreCondFailReq mshr miss latency
system.cpu1.dcache.SwapReq_hits::.cpu1.data         9525                       # number of SwapReq hits
system.cpu1.dcache.SwapReq_hits::total           9525                       # number of SwapReq hits
system.cpu1.dcache.SwapReq_misses::.cpu1.data        31854                       # number of SwapReq misses
system.cpu1.dcache.SwapReq_misses::total        31854                       # number of SwapReq misses
system.cpu1.dcache.SwapReq_miss_latency::.cpu1.data   2832414833                       # number of SwapReq miss cycles
system.cpu1.dcache.SwapReq_miss_latency::total   2832414833                       # number of SwapReq miss cycles
system.cpu1.dcache.SwapReq_accesses::.cpu1.data        41379                       # number of SwapReq accesses(hits+misses)
system.cpu1.dcache.SwapReq_accesses::total        41379                       # number of SwapReq accesses(hits+misses)
system.cpu1.dcache.SwapReq_miss_rate::.cpu1.data     0.769811                       # miss rate for SwapReq accesses
system.cpu1.dcache.SwapReq_miss_rate::total     0.769811                       # miss rate for SwapReq accesses
system.cpu1.dcache.SwapReq_avg_miss_latency::.cpu1.data 88918.654894                       # average SwapReq miss latency
system.cpu1.dcache.SwapReq_avg_miss_latency::total 88918.654894                       # average SwapReq miss latency
system.cpu1.dcache.SwapReq_mshr_hits::.cpu1.data            5                       # number of SwapReq MSHR hits
system.cpu1.dcache.SwapReq_mshr_hits::total            5                       # number of SwapReq MSHR hits
system.cpu1.dcache.SwapReq_mshr_misses::.cpu1.data        31849                       # number of SwapReq MSHR misses
system.cpu1.dcache.SwapReq_mshr_misses::total        31849                       # number of SwapReq MSHR misses
system.cpu1.dcache.SwapReq_mshr_miss_latency::.cpu1.data   2800560833                       # number of SwapReq MSHR miss cycles
system.cpu1.dcache.SwapReq_mshr_miss_latency::total   2800560833                       # number of SwapReq MSHR miss cycles
system.cpu1.dcache.SwapReq_mshr_miss_rate::.cpu1.data     0.769690                       # mshr miss rate for SwapReq accesses
system.cpu1.dcache.SwapReq_mshr_miss_rate::total     0.769690                       # mshr miss rate for SwapReq accesses
system.cpu1.dcache.SwapReq_avg_mshr_miss_latency::.cpu1.data 87932.457314                       # average SwapReq mshr miss latency
system.cpu1.dcache.SwapReq_avg_mshr_miss_latency::total 87932.457314                       # average SwapReq mshr miss latency
system.cpu1.dcache.tags.pwrStateResidencyTicks::UNDEFINED 121787574500                       # Cumulative time (in ticks) in various power states
system.cpu1.dcache.tags.tagsinuse           31.846381                       # Cycle average of tags in use
system.cpu1.dcache.tags.total_refs           18544671                       # Total number of references to valid blocks.
system.cpu1.dcache.tags.sampled_refs          1685072                       # Sample count of references to valid blocks.
system.cpu1.dcache.tags.avg_refs            11.005269                       # Average number of references to valid blocks.
system.cpu1.dcache.tags.warmup_cycle                0                       # Cycle when the warmup percentage was hit.
system.cpu1.dcache.tags.occ_blocks::.cpu1.data    31.846381                       # Average occupied blocks per requestor
system.cpu1.dcache.tags.occ_percent::.cpu1.data     0.995199                       # Average percentage of cache occupancy
system.cpu1.dcache.tags.occ_percent::total     0.995199                       # Average percentage of cache occupancy
system.cpu1.dcache.tags.occ_task_id_blocks::1024           27                       # Occupied blocks per task id
system.cpu1.dcache.tags.age_task_id_blocks_1024::1           27                       # Occupied blocks per task id
system.cpu1.dcache.tags.occ_task_id_percent::1024     0.843750                       # Percentage of cache occupancy per task id
system.cpu1.dcache.tags.tag_accesses         57990653                       # Number of tag accesses
system.cpu1.dcache.tags.data_accesses        57990653                       # Number of data accesses
system.cpu_clk_domain.clock                       500                       # Clock period in ticks
system.tol2bus.pwrStateResidencyTicks::UNDEFINED 121787574500                       # Cumulative time (in ticks) in various power states
system.tol2bus.trans_dist::ReadResp           1632044                       # Transaction distribution
system.tol2bus.trans_dist::WritebackDirty      4870243                       # Transaction distribution
system.tol2bus.trans_dist::WritebackClean      1052485                       # Transaction distribution
system.tol2bus.trans_dist::CleanEvict         4631038                       # Transaction distribution
system.tol2bus.trans_dist::HardPFReq          4272758                       # Transaction distribution
system.tol2bus.trans_dist::HardPFResp               1                       # Transaction distribution
system.tol2bus.trans_dist::UpgradeReq            6437                       # Transaction distribution
system.tol2bus.trans_dist::SCUpgradeReq          3577                       # Transaction distribution
system.tol2bus.trans_dist::UpgradeResp          10014                       # Transaction distribution
system.tol2bus.trans_dist::SCUpgradeFailReq           51                       # Transaction distribution
system.tol2bus.trans_dist::UpgradeFailResp           51                       # Transaction distribution
system.tol2bus.trans_dist::ReadExReq          1883129                       # Transaction distribution
system.tol2bus.trans_dist::ReadExResp         1883131                       # Transaction distribution
system.tol2bus.trans_dist::ReadCleanReq         99058                       # Transaction distribution
system.tol2bus.trans_dist::ReadSharedReq      1532988                       # Transaction distribution
system.tol2bus.trans_dist::InvalidateReq         1059                       # Transaction distribution
system.tol2bus.trans_dist::InvalidateResp         1059                       # Transaction distribution
system.tol2bus.pkt_count_system.cpu0.icache.mem_side::system.l2.cpu_side       204262                       # Packet count per connected master and slave (bytes)
system.tol2bus.pkt_count_system.cpu0.dcache.mem_side::system.l2.cpu_side      5189162                       # Packet count per connected master and slave (bytes)
system.tol2bus.pkt_count_system.cpu1.icache.mem_side::system.l2.cpu_side        92910                       # Packet count per connected master and slave (bytes)
system.tol2bus.pkt_count_system.cpu1.dcache.mem_side::system.l2.cpu_side      5048218                       # Packet count per connected master and slave (bytes)
system.tol2bus.pkt_count::total              10534552                       # Packet count per connected master and slave (bytes)
system.tol2bus.pkt_size_system.cpu0.icache.mem_side::system.l2.cpu_side      8715136                       # Cumulative packet size per connected master and slave (bytes)
system.tol2bus.pkt_size_system.cpu0.dcache.mem_side::system.l2.cpu_side    220796864                       # Cumulative packet size per connected master and slave (bytes)
system.tol2bus.pkt_size_system.cpu1.icache.mem_side::system.l2.cpu_side      3964160                       # Cumulative packet size per connected master and slave (bytes)
system.tol2bus.pkt_size_system.cpu1.dcache.mem_side::system.l2.cpu_side    214831808                       # Cumulative packet size per connected master and slave (bytes)
system.tol2bus.pkt_size::total              448307968                       # Cumulative packet size per connected master and slave (bytes)
system.tol2bus.snoops                        11344572                       # Total snoops (count)
system.tol2bus.snoopTraffic                 155721216                       # Total snoop traffic (bytes)
system.tol2bus.snoop_fanout::samples         14850743                       # Request fanout histogram
system.tol2bus.snoop_fanout::mean            0.225672                       # Request fanout histogram
system.tol2bus.snoop_fanout::stdev           0.424542                       # Request fanout histogram
system.tol2bus.snoop_fanout::underflows             0      0.00%      0.00% # Request fanout histogram
system.tol2bus.snoop_fanout::0               11540124     77.71%     77.71% # Request fanout histogram
system.tol2bus.snoop_fanout::1                3269843     22.02%     99.73% # Request fanout histogram
system.tol2bus.snoop_fanout::2                  40776      0.27%    100.00% # Request fanout histogram
system.tol2bus.snoop_fanout::3                      0      0.00%    100.00% # Request fanout histogram
system.tol2bus.snoop_fanout::4                      0      0.00%    100.00% # Request fanout histogram
system.tol2bus.snoop_fanout::5                      0      0.00%    100.00% # Request fanout histogram
system.tol2bus.snoop_fanout::6                      0      0.00%    100.00% # Request fanout histogram
system.tol2bus.snoop_fanout::7                      0      0.00%    100.00% # Request fanout histogram
system.tol2bus.snoop_fanout::8                      0      0.00%    100.00% # Request fanout histogram
system.tol2bus.snoop_fanout::overflows              0      0.00%    100.00% # Request fanout histogram
system.tol2bus.snoop_fanout::min_value              0                       # Request fanout histogram
system.tol2bus.snoop_fanout::max_value              2                       # Request fanout histogram
system.tol2bus.snoop_fanout::total           14850743                       # Request fanout histogram
system.tol2bus.reqLayer0.occupancy         7019662733                       # Layer occupancy (ticks)
system.tol2bus.reqLayer0.utilization              5.8                       # Layer utilization (%)
system.tol2bus.respLayer1.occupancy        2604152013                       # Layer occupancy (ticks)
system.tol2bus.respLayer1.utilization             2.1                       # Layer utilization (%)
system.tol2bus.respLayer0.occupancy         102416425                       # Layer occupancy (ticks)
system.tol2bus.respLayer0.utilization             0.1                       # Layer utilization (%)
system.tol2bus.respLayer3.occupancy        2534127090                       # Layer occupancy (ticks)
system.tol2bus.respLayer3.utilization             2.1                       # Layer utilization (%)
system.tol2bus.respLayer2.occupancy          46698512                       # Layer occupancy (ticks)
system.tol2bus.respLayer2.utilization             0.0                       # Layer utilization (%)
system.tol2bus.snoopLayer0.occupancy             1507                       # Layer occupancy (ticks)
system.tol2bus.snoopLayer0.utilization            0.0                       # Layer utilization (%)

---------- End Simulation Statistics   ----------
