gem5 Simulator System.  http://gem5.org
gem5 is copyrighted software; use the --copyright option for details.

gem5 compiled Mar 27 2020 00:28:59
gem5 started Apr 24 2020 23:44:42
gem5 executing on muhammet, pid 2054
command line: /home/muhammet/Desktop/gem5/build/RISCV/gem5.fast -re --outdir=/home/muhammet/Desktop/gem5/results/bfs/dblp.el/prefetch_IndirectMemoryPrefetcher_BRRIPRP --stdout-file=output.txt --stderr-file=error.txt /home/muhammet/Desktop/gem5/configs/example/my_se.py -c /home/muhammet/Desktop/gem5/gapbs/bfs -o '-f /home/muhammet/Desktop/gem5/gapbs/test/graphs/dblp.el' --caches --l1d_size=2kB --l1i_size=2kB --cpu-type=DerivO3CPU -n 4 --mem-size=512MB --l2cache --l2_size=4kB --l2-hwp-type=IndirectMemoryPrefetcher --l2-replacement-policy=BRRIPRP --l1i_mshrs=4 --l1d_mshrs=4 --l2_mshrs=20 --l1i_write_buffers=8 --l1d_write_buffers=8 --l2_write_buffers=8

Warning: l2-hwp-type is set ( IndirectMemoryPrefetcher ), but the current l2 has a default Hardware Prefetcher of type <class 'm5.params.NullSimObject'> , using the specified by the flag option.
Global frequency set at 1000000000000 ticks per second
**** REAL SIMULATION ****
Read Time:           0.88184
Build Time:          0.12030
Graph has 425957 nodes and 1049866 directed edges for degree: 2
Source:                85136
    i                0.00144
   td          4     0.00002
   td         36     0.00002
   td         85     0.00002
   td        111     0.00002
   td        182     0.00003
   td        235     0.00003
   td        382     0.00004
   td        442     0.00005
   td        580     0.00005
   td        572     0.00006
   td        380     0.00005
   td        256     0.00003
   td        116     0.00003
   td         56     0.00002
   td         53     0.00002
   td         41     0.00002
   td         12     0.00002
   td          5     0.00001
   td          1     0.00001
   td          1     0.00001
   td          4     0.00001
   td          0     0.00001
Trial Time:          0.00332
Source:               174172
    i                0.00144
   td          1     0.00002
   td          0     0.00001
Trial Time:          0.00234
Source:               394951
    i                0.00143
   td          1     0.00002
   td          0     0.00001
Trial Time:          0.00232
Source:               101549
    i                0.00144
   td          8     0.00002
   td          4     0.00001
   td          0     0.00001
Trial Time:          0.00236
Source:               362397
    i                0.00143
   td          1     0.00002
   td          0     0.00001
Trial Time:          0.00232
Source:                74869
    i                0.00143
   td          2     0.00002
   td         64     0.00002
   td        293     0.00003
   td        794     0.00005
   td       1779     0.00012
   td       3336     0.00020
   td       5365     0.00035
   td       6798     0.00041
   td       6435     0.00043
   td       4602     0.00035
   td       2752     0.00022
   td       1503     0.00013
   td        771     0.00008
   td        344     0.00005
   td        163     0.00003
   td        116     0.00002
   td         34     0.00002
   td         21     0.00002
   td          4     0.00001
   td          9     0.00001
   td          2     0.00001
   td          4     0.00001
   td          1     0.00001
   td          0     0.00001
Trial Time:          0.00538
Source:               330191
    i                0.00143
   td          1     0.00002
   td          1     0.00001
   td          0     0.00001
Trial Time:          0.00235
Source:               133608
    i                0.00142
   td          1     0.00002
   td          0     0.00001
Trial Time:          0.00231
Source:               170715
    i                0.00145
   td          1     0.00002
   td          0     0.00001
Trial Time:          0.00234
Source:                44340
    i                0.00143
   td          2     0.00002
   td         15     0.00002
   td         71     0.00002
   td        130     0.00002
   td        312     0.00004
   td        592     0.00006
   td       1253     0.00009
   td       2241     0.00016
   td       3594     0.00021
   td       3730     0.00029
   td       2896     0.00021
   td       2393     0.00020
   td       2067     0.00018
   td       1594     0.00015
   td       1225     0.00010
   td        819     0.00008
   td        549     0.00006
   td        251     0.00004
   td         94     0.00003
   td         48     0.00002
   td         23     0.00002
   td         15     0.00002
   td         18     0.00001
   td          4     0.00001
   td          0     0.00001
Trial Time:          0.00483
Source:               221784
    i                0.00142
   td          3     0.00002
   td          0     0.00001
Trial Time:          0.00231
Source:                88856
    i                0.00142
   td          7     0.00002
   td         22     0.00001
   td         29     0.00002
   td         57     0.00002
   td         76     0.00002
   td         79     0.00002
   td         72     0.00002
   td         61     0.00002
   td         31     0.00002
   td         10     0.00002
   td          0     0.00001
Trial Time:          0.00266
Source:               388999
    i                0.00143
   td          4     0.00002
   td          0     0.00001
Trial Time:          0.00232
Source:                19623
    i                0.00144
   td          1     0.00002
   td          0     0.00001
Trial Time:          0.00233
Source:               338711
    i                0.00144
   td          2     0.00002
   td          0     0.00001
Trial Time:          0.00233
Source:               379423
    i                0.00144
   td          2     0.00002
   td          0     0.00001
Trial Time:          0.00233
Average Time:        0.00276
Exiting @ tick 1095343903000 because exiting with last active thread context
