
---------- Begin Simulation Statistics ----------
final_tick                               956260410500                       # Number of ticks from beginning of simulation (restored from checkpoints and never reset)
host_inst_rate                                  91015                       # Simulator instruction rate (inst/s)
host_mem_usage                                 739396                       # Number of bytes of host memory used
host_op_rate                                    91313                       # Simulator op (including micro ops) rate (op/s)
host_seconds                                 12189.68                       # Real time elapsed on the host
host_tick_rate                               78448385                       # Simulator tick rate (ticks/s)
sim_freq                                 1000000000000                       # Frequency of simulated ticks
sim_insts                                  1109447704                       # Number of instructions simulated
sim_ops                                    1113074200                       # Number of ops (including micro ops) simulated
sim_seconds                                  0.956260                       # Number of seconds simulated
sim_ticks                                956260410500                       # Number of ticks simulated
system.cpu0.branchPred.BTBCorrect                   0                       # Number of correct BTB predictions (this stat may not work properly.
system.cpu0.branchPred.BTBHitPct            88.984017                       # BTB Hit Percentage
system.cpu0.branchPred.BTBHits              138700919                       # Number of BTB hits
system.cpu0.branchPred.BTBLookups           155871722                       # Number of BTB lookups
system.cpu0.branchPred.RASInCorrect                 0                       # Number of incorrect RAS predictions.
system.cpu0.branchPred.condIncorrect         17545092                       # Number of conditional branches incorrect
system.cpu0.branchPred.condPredicted        206058735                       # Number of conditional branches predicted
system.cpu0.branchPred.indirectHits          16899809                       # Number of indirect target hits.
system.cpu0.branchPred.indirectLookups       16981015                       # Number of indirect predictor lookups.
system.cpu0.branchPred.indirectMisses           81206                       # Number of indirect misses.
system.cpu0.branchPred.lookups              265293624                       # Number of BP lookups
system.cpu0.branchPred.usedRAS                      0                       # Number of times the RAS was used to get a target.
system.cpu0.branchPredindirectMispredicted      1850394                       # Number of mispredicted indirect branches.
system.cpu0.commit.amos                        906002                       # Number of atomic instructions committed
system.cpu0.commit.branchMispredicts          9924642                       # The number of times a branch was mispredicted
system.cpu0.commit.branches                 252652490                       # Number of branches committed
system.cpu0.commit.bw_lim_events             34368908                       # number cycles where commit BW limit reached
system.cpu0.commit.commitNonSpecStalls        2725340                       # The number of times commit has been forced to stall to communicate backwards
system.cpu0.commit.commitSquashedInsts       29459010                       # The number of squashed insts skipped by commit
system.cpu0.commit.committedInsts          1016641818                       # Number of instructions committed
system.cpu0.commit.committedOps            1017550359                       # Number of ops (including micro ops) committed
system.cpu0.commit.committed_per_cycle::samples   1707358080                       # Number of insts commited each cycle
system.cpu0.commit.committed_per_cycle::mean     0.595979                       # Number of insts commited each cycle
system.cpu0.commit.committed_per_cycle::stdev     1.394798                       # Number of insts commited each cycle
system.cpu0.commit.committed_per_cycle::underflows            0      0.00%      0.00% # Number of insts commited each cycle
system.cpu0.commit.committed_per_cycle::0   1224196738     71.70%     71.70% # Number of insts commited each cycle
system.cpu0.commit.committed_per_cycle::1    285845484     16.74%     88.44% # Number of insts commited each cycle
system.cpu0.commit.committed_per_cycle::2     74745632      4.38%     92.82% # Number of insts commited each cycle
system.cpu0.commit.committed_per_cycle::3     63035390      3.69%     96.51% # Number of insts commited each cycle
system.cpu0.commit.committed_per_cycle::4     14179590      0.83%     97.34% # Number of insts commited each cycle
system.cpu0.commit.committed_per_cycle::5      6072281      0.36%     97.70% # Number of insts commited each cycle
system.cpu0.commit.committed_per_cycle::6      3321987      0.19%     97.89% # Number of insts commited each cycle
system.cpu0.commit.committed_per_cycle::7      1592070      0.09%     97.99% # Number of insts commited each cycle
system.cpu0.commit.committed_per_cycle::8     34368908      2.01%    100.00% # Number of insts commited each cycle
system.cpu0.commit.committed_per_cycle::overflows            0      0.00%    100.00% # Number of insts commited each cycle
system.cpu0.commit.committed_per_cycle::min_value            0                       # Number of insts commited each cycle
system.cpu0.commit.committed_per_cycle::max_value            8                       # Number of insts commited each cycle
system.cpu0.commit.committed_per_cycle::total   1707358080                       # Number of insts commited each cycle
system.cpu0.commit.fp_insts                        50                       # Number of committed floating point instructions.
system.cpu0.commit.function_calls            20546159                       # Number of function calls committed.
system.cpu0.commit.int_insts                983066583                       # Number of committed integer instructions.
system.cpu0.commit.loads                    316455481                       # Number of loads committed
system.cpu0.commit.membars                    1814449                       # Number of memory barriers committed
system.cpu0.commit.op_class_0::No_OpClass      1814455      0.18%      0.18% # Class of committed instruction
system.cpu0.commit.op_class_0::IntAlu       563665401     55.39%     55.57% # Class of committed instruction
system.cpu0.commit.op_class_0::IntMult        8031685      0.79%     56.36% # Class of committed instruction
system.cpu0.commit.op_class_0::IntDiv         1811039      0.18%     56.54% # Class of committed instruction
system.cpu0.commit.op_class_0::FloatAdd             0      0.00%     56.54% # Class of committed instruction
system.cpu0.commit.op_class_0::FloatCmp             4      0.00%     56.54% # Class of committed instruction
system.cpu0.commit.op_class_0::FloatCvt            12      0.00%     56.54% # Class of committed instruction
system.cpu0.commit.op_class_0::FloatMult            0      0.00%     56.54% # Class of committed instruction
system.cpu0.commit.op_class_0::FloatMultAcc            0      0.00%     56.54% # Class of committed instruction
system.cpu0.commit.op_class_0::FloatDiv             2      0.00%     56.54% # Class of committed instruction
system.cpu0.commit.op_class_0::FloatMisc            4      0.00%     56.54% # Class of committed instruction
system.cpu0.commit.op_class_0::FloatSqrt            0      0.00%     56.54% # Class of committed instruction
system.cpu0.commit.op_class_0::SimdAdd              0      0.00%     56.54% # Class of committed instruction
system.cpu0.commit.op_class_0::SimdAddAcc            0      0.00%     56.54% # Class of committed instruction
system.cpu0.commit.op_class_0::SimdAlu              0      0.00%     56.54% # Class of committed instruction
system.cpu0.commit.op_class_0::SimdCmp              0      0.00%     56.54% # Class of committed instruction
system.cpu0.commit.op_class_0::SimdCvt              0      0.00%     56.54% # Class of committed instruction
system.cpu0.commit.op_class_0::SimdMisc             0      0.00%     56.54% # Class of committed instruction
system.cpu0.commit.op_class_0::SimdMult             0      0.00%     56.54% # Class of committed instruction
system.cpu0.commit.op_class_0::SimdMultAcc            0      0.00%     56.54% # Class of committed instruction
system.cpu0.commit.op_class_0::SimdShift            0      0.00%     56.54% # Class of committed instruction
system.cpu0.commit.op_class_0::SimdShiftAcc            0      0.00%     56.54% # Class of committed instruction
system.cpu0.commit.op_class_0::SimdDiv              0      0.00%     56.54% # Class of committed instruction
system.cpu0.commit.op_class_0::SimdSqrt             0      0.00%     56.54% # Class of committed instruction
system.cpu0.commit.op_class_0::SimdFloatAdd            0      0.00%     56.54% # Class of committed instruction
system.cpu0.commit.op_class_0::SimdFloatAlu            0      0.00%     56.54% # Class of committed instruction
system.cpu0.commit.op_class_0::SimdFloatCmp            0      0.00%     56.54% # Class of committed instruction
system.cpu0.commit.op_class_0::SimdFloatCvt            0      0.00%     56.54% # Class of committed instruction
system.cpu0.commit.op_class_0::SimdFloatDiv            0      0.00%     56.54% # Class of committed instruction
system.cpu0.commit.op_class_0::SimdFloatMisc            0      0.00%     56.54% # Class of committed instruction
system.cpu0.commit.op_class_0::SimdFloatMult            0      0.00%     56.54% # Class of committed instruction
system.cpu0.commit.op_class_0::SimdFloatMultAcc            0      0.00%     56.54% # Class of committed instruction
system.cpu0.commit.op_class_0::SimdFloatSqrt            0      0.00%     56.54% # Class of committed instruction
system.cpu0.commit.op_class_0::SimdReduceAdd            0      0.00%     56.54% # Class of committed instruction
system.cpu0.commit.op_class_0::SimdReduceAlu            0      0.00%     56.54% # Class of committed instruction
system.cpu0.commit.op_class_0::SimdReduceCmp            0      0.00%     56.54% # Class of committed instruction
system.cpu0.commit.op_class_0::SimdFloatReduceAdd            0      0.00%     56.54% # Class of committed instruction
system.cpu0.commit.op_class_0::SimdFloatReduceCmp            0      0.00%     56.54% # Class of committed instruction
system.cpu0.commit.op_class_0::SimdAes              0      0.00%     56.54% # Class of committed instruction
system.cpu0.commit.op_class_0::SimdAesMix            0      0.00%     56.54% # Class of committed instruction
system.cpu0.commit.op_class_0::SimdSha1Hash            0      0.00%     56.54% # Class of committed instruction
system.cpu0.commit.op_class_0::SimdSha1Hash2            0      0.00%     56.54% # Class of committed instruction
system.cpu0.commit.op_class_0::SimdSha256Hash            0      0.00%     56.54% # Class of committed instruction
system.cpu0.commit.op_class_0::SimdSha256Hash2            0      0.00%     56.54% # Class of committed instruction
system.cpu0.commit.op_class_0::SimdShaSigma2            0      0.00%     56.54% # Class of committed instruction
system.cpu0.commit.op_class_0::SimdShaSigma3            0      0.00%     56.54% # Class of committed instruction
system.cpu0.commit.op_class_0::SimdPredAlu            0      0.00%     56.54% # Class of committed instruction
system.cpu0.commit.op_class_0::MemRead      317361475     31.19%     87.73% # Class of committed instruction
system.cpu0.commit.op_class_0::MemWrite     124866254     12.27%    100.00% # Class of committed instruction
system.cpu0.commit.op_class_0::FloatMemRead            8      0.00%    100.00% # Class of committed instruction
system.cpu0.commit.op_class_0::FloatMemWrite           20      0.00%    100.00% # Class of committed instruction
system.cpu0.commit.op_class_0::IprAccess            0      0.00%    100.00% # Class of committed instruction
system.cpu0.commit.op_class_0::InstPrefetch            0      0.00%    100.00% # Class of committed instruction
system.cpu0.commit.op_class_0::total       1017550359                       # Class of committed instruction
system.cpu0.commit.refs                     442227757                       # Number of memory references committed
system.cpu0.commit.swp_count                        0                       # Number of s/w prefetches committed
system.cpu0.commit.vec_insts                        0                       # Number of committed Vector instructions.
system.cpu0.committedInsts                 1016641818                       # Number of Instructions Simulated
system.cpu0.committedOps                   1017550359                       # Number of Ops (including micro ops) Simulated
system.cpu0.cpi                              1.864258                       # CPI: Cycles Per Instruction
system.cpu0.cpi_total                        1.864258                       # CPI: Total CPI of All Threads
system.cpu0.decode.BlockedCycles            195720835                       # Number of cycles decode is blocked
system.cpu0.decode.BranchMispred              7624258                       # Number of times decode detected a branch misprediction
system.cpu0.decode.BranchResolved           134273271                       # Number of times decode resolved a branch
system.cpu0.decode.DecodedInsts            1071938929                       # Number of instructions handled by decode
system.cpu0.decode.IdleCycles               753329800                       # Number of cycles decode is idle
system.cpu0.decode.RunCycles                756424054                       # Number of cycles decode is running
system.cpu0.decode.SquashCycles               9934438                       # Number of cycles decode is squashing
system.cpu0.decode.SquashedInsts              6066888                       # Number of squashed instructions handled by decode
system.cpu0.decode.UnblockCycles              2859940                       # Number of cycles decode is unblocking
system.cpu0.dtb.accesses                            0                       # DTB accesses
system.cpu0.dtb.hits                                0                       # DTB hits
system.cpu0.dtb.misses                              0                       # DTB misses
system.cpu0.dtb.read_accesses                       0                       # DTB read accesses
system.cpu0.dtb.read_hits                           0                       # DTB read hits
system.cpu0.dtb.read_misses                         0                       # DTB read misses
system.cpu0.dtb.write_accesses                      0                       # DTB write accesses
system.cpu0.dtb.write_hits                          0                       # DTB write hits
system.cpu0.dtb.write_misses                        0                       # DTB write misses
system.cpu0.fetch.Branches                  265293624                       # Number of branches that fetch encountered
system.cpu0.fetch.CacheLines                176976858                       # Number of cache lines fetched
system.cpu0.fetch.Cycles                    957343150                       # Number of cycles fetch has run and was not squashing or blocked
system.cpu0.fetch.IcacheSquashes              5724540                       # Number of outstanding Icache misses that were squashed
system.cpu0.fetch.IcacheWaitRetryStallCycles          216                       # Number of stall cycles due to full MSHR
system.cpu0.fetch.Insts                    1085793677                       # Number of instructions fetch has processed
system.cpu0.fetch.MiscStallCycles                  23                       # Number of cycles fetch has spent waiting on interrupts, or bad addresses, or out of MSHRs
system.cpu0.fetch.PendingTrapStallCycles           59                       # Number of stall cycles due to pending traps
system.cpu0.fetch.SquashCycles               35109794                       # Number of cycles fetch has spent squashing
system.cpu0.fetch.branchRate                 0.139976                       # Number of branch fetches per cycle
system.cpu0.fetch.icacheStallCycles         743370722                       # Number of cycles fetch is stalled on an Icache miss
system.cpu0.fetch.predictedBranches         155600728                       # Number of branches that fetch has predicted taken
system.cpu0.fetch.rate                       0.572893                       # Number of inst fetches per cycle
system.cpu0.fetch.rateDist::samples        1718269067                       # Number of instructions fetched each cycle (Total)
system.cpu0.fetch.rateDist::mean             0.632440                       # Number of instructions fetched each cycle (Total)
system.cpu0.fetch.rateDist::stdev            0.895965                       # Number of instructions fetched each cycle (Total)
system.cpu0.fetch.rateDist::underflows              0      0.00%      0.00% # Number of instructions fetched each cycle (Total)
system.cpu0.fetch.rateDist::0               937193092     54.54%     54.54% # Number of instructions fetched each cycle (Total)
system.cpu0.fetch.rateDist::1               589974476     34.34%     88.88% # Number of instructions fetched each cycle (Total)
system.cpu0.fetch.rateDist::2               112181066      6.53%     95.41% # Number of instructions fetched each cycle (Total)
system.cpu0.fetch.rateDist::3                60530710      3.52%     98.93% # Number of instructions fetched each cycle (Total)
system.cpu0.fetch.rateDist::4                10642087      0.62%     99.55% # Number of instructions fetched each cycle (Total)
system.cpu0.fetch.rateDist::5                 3897485      0.23%     99.78% # Number of instructions fetched each cycle (Total)
system.cpu0.fetch.rateDist::6                  134992      0.01%     99.78% # Number of instructions fetched each cycle (Total)
system.cpu0.fetch.rateDist::7                 1813064      0.11%     99.89% # Number of instructions fetched each cycle (Total)
system.cpu0.fetch.rateDist::8                 1902095      0.11%    100.00% # Number of instructions fetched each cycle (Total)
system.cpu0.fetch.rateDist::overflows               0      0.00%    100.00% # Number of instructions fetched each cycle (Total)
system.cpu0.fetch.rateDist::min_value               0                       # Number of instructions fetched each cycle (Total)
system.cpu0.fetch.rateDist::max_value               8                       # Number of instructions fetched each cycle (Total)
system.cpu0.fetch.rateDist::total          1718269067                       # Number of instructions fetched each cycle (Total)
system.cpu0.fp_regfile_reads                       44                       # number of floating regfile reads
system.cpu0.fp_regfile_writes                      22                       # number of floating regfile writes
system.cpu0.idleCycles                      177013946                       # Total number of cycles that the CPU has spent unscheduled due to idling
system.cpu0.iew.branchMispredicts            10054947                       # Number of branch mispredicts detected at execute
system.cpu0.iew.exec_branches               255304691                       # Number of branches executed
system.cpu0.iew.exec_nop                            0                       # number of nop insts executed
system.cpu0.iew.exec_rate                    0.549590                       # Inst execution rate
system.cpu0.iew.exec_refs                   458655764                       # number of memory reference insts executed
system.cpu0.iew.exec_stores                 127392374                       # Number of stores executed
system.cpu0.iew.exec_swp                            0                       # number of swp insts executed
system.cpu0.iew.iewBlockCycles              153422957                       # Number of cycles IEW is blocking
system.cpu0.iew.iewDispLoadInsts            331642238                       # Number of dispatched load instructions
system.cpu0.iew.iewDispNonSpecInsts            911394                       # Number of dispatched non-speculative instructions
system.cpu0.iew.iewDispSquashedInsts          6848460                       # Number of squashed instructions skipped by dispatch
system.cpu0.iew.iewDispStoreInsts           128320798                       # Number of dispatched store instructions
system.cpu0.iew.iewDispatchedInsts         1046997019                       # Number of instructions dispatched to IQ
system.cpu0.iew.iewExecLoadInsts            331263390                       # Number of load instructions executed
system.cpu0.iew.iewExecSquashedInsts          6196229                       # Number of squashed instructions skipped in execute
system.cpu0.iew.iewExecutedInsts           1041628512                       # Number of executed instructions
system.cpu0.iew.iewIQFullEvents                866116                       # Number of times the IQ has become full, causing a stall
system.cpu0.iew.iewIdleCycles                       0                       # Number of cycles IEW is idle
system.cpu0.iew.iewLSQFullEvents              3315001                       # Number of times the LSQ has become full, causing a stall
system.cpu0.iew.iewSquashCycles               9934438                       # Number of cycles IEW is squashing
system.cpu0.iew.iewUnblockCycles              5246276                       # Number of cycles IEW is unblocking
system.cpu0.iew.lsq.thread0.blockedLoads            0                       # Number of blocked loads due to partial load-store forwarding
system.cpu0.iew.lsq.thread0.cacheBlocked       181092                       # Number of times an access to memory failed due to the cache being blocked
system.cpu0.iew.lsq.thread0.forwLoads        19938533                       # Number of loads that had data forwarded from stores
system.cpu0.iew.lsq.thread0.ignoredResponses        13048                       # Number of memory responses ignored because the instruction is squashed
system.cpu0.iew.lsq.thread0.invAddrLoads            0                       # Number of loads ignored due to an invalid address
system.cpu0.iew.lsq.thread0.invAddrSwpfs            0                       # Number of software prefetches ignored due to an invalid address
system.cpu0.iew.lsq.thread0.memOrderViolation         9960                       # Number of memory ordering violations
system.cpu0.iew.lsq.thread0.rescheduledLoads      3695279                       # Number of loads that were rescheduled
system.cpu0.iew.lsq.thread0.squashedLoads     15186757                       # Number of loads squashed
system.cpu0.iew.lsq.thread0.squashedStores      2548512                       # Number of stores squashed
system.cpu0.iew.memOrderViolationEvents          9960                       # Number of memory order violations
system.cpu0.iew.predictedNotTakenIncorrect      1145894                       # Number of branches that were predicted not taken incorrectly
system.cpu0.iew.predictedTakenIncorrect       8909053                       # Number of branches that were predicted taken incorrectly
system.cpu0.iew.wb_consumers                458926694                       # num instructions consuming a value
system.cpu0.iew.wb_count                   1031661726                       # cumulative count of insts written-back
system.cpu0.iew.wb_fanout                    0.825815                       # average fanout of values written-back
system.cpu0.iew.wb_producers                378988762                       # num instructions producing a value
system.cpu0.iew.wb_rate                      0.544331                       # insts written-back per cycle
system.cpu0.iew.wb_sent                    1031762375                       # cumulative count of insts sent to commit
system.cpu0.int_regfile_reads              1275517628                       # number of integer regfile reads
system.cpu0.int_regfile_writes              657609124                       # number of integer regfile writes
system.cpu0.ipc                              0.536406                       # IPC: Instructions Per Cycle
system.cpu0.ipc_total                        0.536406                       # IPC: Total IPC of All Threads
system.cpu0.iq.FU_type_0::No_OpClass          1816101      0.17%      0.17% # Type of FU issued
system.cpu0.iq.FU_type_0::IntAlu            573185040     54.70%     54.88% # Type of FU issued
system.cpu0.iq.FU_type_0::IntMult             8139851      0.78%     55.65% # Type of FU issued
system.cpu0.iq.FU_type_0::IntDiv              1811753      0.17%     55.83% # Type of FU issued
system.cpu0.iq.FU_type_0::FloatAdd                  0      0.00%     55.83% # Type of FU issued
system.cpu0.iq.FU_type_0::FloatCmp                  4      0.00%     55.83% # Type of FU issued
system.cpu0.iq.FU_type_0::FloatCvt                 12      0.00%     55.83% # Type of FU issued
system.cpu0.iq.FU_type_0::FloatMult                 0      0.00%     55.83% # Type of FU issued
system.cpu0.iq.FU_type_0::FloatMultAcc              0      0.00%     55.83% # Type of FU issued
system.cpu0.iq.FU_type_0::FloatDiv                  2      0.00%     55.83% # Type of FU issued
system.cpu0.iq.FU_type_0::FloatMisc                 4      0.00%     55.83% # Type of FU issued
system.cpu0.iq.FU_type_0::FloatSqrt                 0      0.00%     55.83% # Type of FU issued
system.cpu0.iq.FU_type_0::SimdAdd                   0      0.00%     55.83% # Type of FU issued
system.cpu0.iq.FU_type_0::SimdAddAcc                0      0.00%     55.83% # Type of FU issued
system.cpu0.iq.FU_type_0::SimdAlu                   0      0.00%     55.83% # Type of FU issued
system.cpu0.iq.FU_type_0::SimdCmp                   0      0.00%     55.83% # Type of FU issued
system.cpu0.iq.FU_type_0::SimdCvt                   0      0.00%     55.83% # Type of FU issued
system.cpu0.iq.FU_type_0::SimdMisc                  0      0.00%     55.83% # Type of FU issued
system.cpu0.iq.FU_type_0::SimdMult                  0      0.00%     55.83% # Type of FU issued
system.cpu0.iq.FU_type_0::SimdMultAcc               0      0.00%     55.83% # Type of FU issued
system.cpu0.iq.FU_type_0::SimdShift                 0      0.00%     55.83% # Type of FU issued
system.cpu0.iq.FU_type_0::SimdShiftAcc              0      0.00%     55.83% # Type of FU issued
system.cpu0.iq.FU_type_0::SimdDiv                   0      0.00%     55.83% # Type of FU issued
system.cpu0.iq.FU_type_0::SimdSqrt                  0      0.00%     55.83% # Type of FU issued
system.cpu0.iq.FU_type_0::SimdFloatAdd              0      0.00%     55.83% # Type of FU issued
system.cpu0.iq.FU_type_0::SimdFloatAlu              0      0.00%     55.83% # Type of FU issued
system.cpu0.iq.FU_type_0::SimdFloatCmp              0      0.00%     55.83% # Type of FU issued
system.cpu0.iq.FU_type_0::SimdFloatCvt              0      0.00%     55.83% # Type of FU issued
system.cpu0.iq.FU_type_0::SimdFloatDiv              0      0.00%     55.83% # Type of FU issued
system.cpu0.iq.FU_type_0::SimdFloatMisc             0      0.00%     55.83% # Type of FU issued
system.cpu0.iq.FU_type_0::SimdFloatMult             0      0.00%     55.83% # Type of FU issued
system.cpu0.iq.FU_type_0::SimdFloatMultAcc            0      0.00%     55.83% # Type of FU issued
system.cpu0.iq.FU_type_0::SimdFloatSqrt             0      0.00%     55.83% # Type of FU issued
system.cpu0.iq.FU_type_0::SimdReduceAdd             0      0.00%     55.83% # Type of FU issued
system.cpu0.iq.FU_type_0::SimdReduceAlu             0      0.00%     55.83% # Type of FU issued
system.cpu0.iq.FU_type_0::SimdReduceCmp             0      0.00%     55.83% # Type of FU issued
system.cpu0.iq.FU_type_0::SimdFloatReduceAdd            0      0.00%     55.83% # Type of FU issued
system.cpu0.iq.FU_type_0::SimdFloatReduceCmp            0      0.00%     55.83% # Type of FU issued
system.cpu0.iq.FU_type_0::SimdAes                   0      0.00%     55.83% # Type of FU issued
system.cpu0.iq.FU_type_0::SimdAesMix                0      0.00%     55.83% # Type of FU issued
system.cpu0.iq.FU_type_0::SimdSha1Hash              0      0.00%     55.83% # Type of FU issued
system.cpu0.iq.FU_type_0::SimdSha1Hash2             0      0.00%     55.83% # Type of FU issued
system.cpu0.iq.FU_type_0::SimdSha256Hash            0      0.00%     55.83% # Type of FU issued
system.cpu0.iq.FU_type_0::SimdSha256Hash2            0      0.00%     55.83% # Type of FU issued
system.cpu0.iq.FU_type_0::SimdShaSigma2             0      0.00%     55.83% # Type of FU issued
system.cpu0.iq.FU_type_0::SimdShaSigma3             0      0.00%     55.83% # Type of FU issued
system.cpu0.iq.FU_type_0::SimdPredAlu               0      0.00%     55.83% # Type of FU issued
system.cpu0.iq.FU_type_0::MemRead           336134385     32.08%     87.90% # Type of FU issued
system.cpu0.iq.FU_type_0::MemWrite          126737562     12.10%    100.00% # Type of FU issued
system.cpu0.iq.FU_type_0::FloatMemRead              8      0.00%    100.00% # Type of FU issued
system.cpu0.iq.FU_type_0::FloatMemWrite            20      0.00%    100.00% # Type of FU issued
system.cpu0.iq.FU_type_0::IprAccess                 0      0.00%    100.00% # Type of FU issued
system.cpu0.iq.FU_type_0::InstPrefetch              0      0.00%    100.00% # Type of FU issued
system.cpu0.iq.FU_type_0::total            1047824742                       # Type of FU issued
system.cpu0.iq.fp_alu_accesses                     52                       # Number of floating point alu accesses
system.cpu0.iq.fp_inst_queue_reads                102                       # Number of floating instruction queue reads
system.cpu0.iq.fp_inst_queue_wakeup_accesses           50                       # Number of floating instruction queue wakeup accesses
system.cpu0.iq.fp_inst_queue_writes                50                       # Number of floating instruction queue writes
system.cpu0.iq.fu_busy_cnt                    1433946                       # FU busy when requested
system.cpu0.iq.fu_busy_rate                  0.001368                       # FU busy rate (busy events/executed inst)
system.cpu0.iq.fu_full::No_OpClass                  0      0.00%      0.00% # attempts to use FU when none available
system.cpu0.iq.fu_full::IntAlu                 295599     20.61%     20.61% # attempts to use FU when none available
system.cpu0.iq.fu_full::IntMult                     0      0.00%     20.61% # attempts to use FU when none available
system.cpu0.iq.fu_full::IntDiv                      0      0.00%     20.61% # attempts to use FU when none available
system.cpu0.iq.fu_full::FloatAdd                    0      0.00%     20.61% # attempts to use FU when none available
system.cpu0.iq.fu_full::FloatCmp                    0      0.00%     20.61% # attempts to use FU when none available
system.cpu0.iq.fu_full::FloatCvt                    0      0.00%     20.61% # attempts to use FU when none available
system.cpu0.iq.fu_full::FloatMult                   0      0.00%     20.61% # attempts to use FU when none available
system.cpu0.iq.fu_full::FloatMultAcc                0      0.00%     20.61% # attempts to use FU when none available
system.cpu0.iq.fu_full::FloatDiv                    0      0.00%     20.61% # attempts to use FU when none available
system.cpu0.iq.fu_full::FloatMisc                   0      0.00%     20.61% # attempts to use FU when none available
system.cpu0.iq.fu_full::FloatSqrt                   0      0.00%     20.61% # attempts to use FU when none available
system.cpu0.iq.fu_full::SimdAdd                     0      0.00%     20.61% # attempts to use FU when none available
system.cpu0.iq.fu_full::SimdAddAcc                  0      0.00%     20.61% # attempts to use FU when none available
system.cpu0.iq.fu_full::SimdAlu                     0      0.00%     20.61% # attempts to use FU when none available
system.cpu0.iq.fu_full::SimdCmp                     0      0.00%     20.61% # attempts to use FU when none available
system.cpu0.iq.fu_full::SimdCvt                     0      0.00%     20.61% # attempts to use FU when none available
system.cpu0.iq.fu_full::SimdMisc                    0      0.00%     20.61% # attempts to use FU when none available
system.cpu0.iq.fu_full::SimdMult                    0      0.00%     20.61% # attempts to use FU when none available
system.cpu0.iq.fu_full::SimdMultAcc                 0      0.00%     20.61% # attempts to use FU when none available
system.cpu0.iq.fu_full::SimdShift                   0      0.00%     20.61% # attempts to use FU when none available
system.cpu0.iq.fu_full::SimdShiftAcc                0      0.00%     20.61% # attempts to use FU when none available
system.cpu0.iq.fu_full::SimdDiv                     0      0.00%     20.61% # attempts to use FU when none available
system.cpu0.iq.fu_full::SimdSqrt                    0      0.00%     20.61% # attempts to use FU when none available
system.cpu0.iq.fu_full::SimdFloatAdd                0      0.00%     20.61% # attempts to use FU when none available
system.cpu0.iq.fu_full::SimdFloatAlu                0      0.00%     20.61% # attempts to use FU when none available
system.cpu0.iq.fu_full::SimdFloatCmp                0      0.00%     20.61% # attempts to use FU when none available
system.cpu0.iq.fu_full::SimdFloatCvt                0      0.00%     20.61% # attempts to use FU when none available
system.cpu0.iq.fu_full::SimdFloatDiv                0      0.00%     20.61% # attempts to use FU when none available
system.cpu0.iq.fu_full::SimdFloatMisc               0      0.00%     20.61% # attempts to use FU when none available
system.cpu0.iq.fu_full::SimdFloatMult               0      0.00%     20.61% # attempts to use FU when none available
system.cpu0.iq.fu_full::SimdFloatMultAcc            0      0.00%     20.61% # attempts to use FU when none available
system.cpu0.iq.fu_full::SimdFloatSqrt               0      0.00%     20.61% # attempts to use FU when none available
system.cpu0.iq.fu_full::SimdReduceAdd               0      0.00%     20.61% # attempts to use FU when none available
system.cpu0.iq.fu_full::SimdReduceAlu               0      0.00%     20.61% # attempts to use FU when none available
system.cpu0.iq.fu_full::SimdReduceCmp               0      0.00%     20.61% # attempts to use FU when none available
system.cpu0.iq.fu_full::SimdFloatReduceAdd            0      0.00%     20.61% # attempts to use FU when none available
system.cpu0.iq.fu_full::SimdFloatReduceCmp            0      0.00%     20.61% # attempts to use FU when none available
system.cpu0.iq.fu_full::SimdAes                     0      0.00%     20.61% # attempts to use FU when none available
system.cpu0.iq.fu_full::SimdAesMix                  0      0.00%     20.61% # attempts to use FU when none available
system.cpu0.iq.fu_full::SimdSha1Hash                0      0.00%     20.61% # attempts to use FU when none available
system.cpu0.iq.fu_full::SimdSha1Hash2               0      0.00%     20.61% # attempts to use FU when none available
system.cpu0.iq.fu_full::SimdSha256Hash              0      0.00%     20.61% # attempts to use FU when none available
system.cpu0.iq.fu_full::SimdSha256Hash2             0      0.00%     20.61% # attempts to use FU when none available
system.cpu0.iq.fu_full::SimdShaSigma2               0      0.00%     20.61% # attempts to use FU when none available
system.cpu0.iq.fu_full::SimdShaSigma3               0      0.00%     20.61% # attempts to use FU when none available
system.cpu0.iq.fu_full::SimdPredAlu                 0      0.00%     20.61% # attempts to use FU when none available
system.cpu0.iq.fu_full::MemRead                981410     68.44%     89.06% # attempts to use FU when none available
system.cpu0.iq.fu_full::MemWrite               156935     10.94%    100.00% # attempts to use FU when none available
system.cpu0.iq.fu_full::FloatMemRead                0      0.00%    100.00% # attempts to use FU when none available
system.cpu0.iq.fu_full::FloatMemWrite               2      0.00%    100.00% # attempts to use FU when none available
system.cpu0.iq.fu_full::IprAccess                   0      0.00%    100.00% # attempts to use FU when none available
system.cpu0.iq.fu_full::InstPrefetch                0      0.00%    100.00% # attempts to use FU when none available
system.cpu0.iq.int_alu_accesses            1047442535                       # Number of integer alu accesses
system.cpu0.iq.int_inst_queue_reads        3815461361                       # Number of integer instruction queue reads
system.cpu0.iq.int_inst_queue_wakeup_accesses   1031661676                       # Number of integer instruction queue wakeup accesses
system.cpu0.iq.int_inst_queue_writes       1076452458                       # Number of integer instruction queue writes
system.cpu0.iq.iqInstsAdded                1044270987                       # Number of instructions added to the IQ (excludes non-spec)
system.cpu0.iq.iqInstsIssued               1047824742                       # Number of instructions issued
system.cpu0.iq.iqNonSpecInstsAdded            2726032                       # Number of non-speculative instructions added to the IQ
system.cpu0.iq.iqSquashedInstsExamined       29446584                       # Number of squashed instructions iterated over during squash; mainly for profiling
system.cpu0.iq.iqSquashedInstsIssued           108967                       # Number of squashed instructions issued
system.cpu0.iq.iqSquashedNonSpecRemoved           692                       # Number of squashed non-spec instructions that were removed
system.cpu0.iq.iqSquashedOperandsExamined     15961399                       # Number of squashed operands that are examined and possibly removed from graph
system.cpu0.iq.issued_per_cycle::samples   1718269067                       # Number of insts issued each cycle
system.cpu0.iq.issued_per_cycle::mean        0.609814                       # Number of insts issued each cycle
system.cpu0.iq.issued_per_cycle::stdev       0.849007                       # Number of insts issued each cycle
system.cpu0.iq.issued_per_cycle::underflows            0      0.00%      0.00% # Number of insts issued each cycle
system.cpu0.iq.issued_per_cycle::0          962561879     56.02%     56.02% # Number of insts issued each cycle
system.cpu0.iq.issued_per_cycle::1          548952175     31.95%     87.97% # Number of insts issued each cycle
system.cpu0.iq.issued_per_cycle::2          144802480      8.43%     96.39% # Number of insts issued each cycle
system.cpu0.iq.issued_per_cycle::3           47564335      2.77%     99.16% # Number of insts issued each cycle
system.cpu0.iq.issued_per_cycle::4            9065474      0.53%     99.69% # Number of insts issued each cycle
system.cpu0.iq.issued_per_cycle::5            2693815      0.16%     99.85% # Number of insts issued each cycle
system.cpu0.iq.issued_per_cycle::6            1730050      0.10%     99.95% # Number of insts issued each cycle
system.cpu0.iq.issued_per_cycle::7             727541      0.04%     99.99% # Number of insts issued each cycle
system.cpu0.iq.issued_per_cycle::8             171318      0.01%    100.00% # Number of insts issued each cycle
system.cpu0.iq.issued_per_cycle::overflows            0      0.00%    100.00% # Number of insts issued each cycle
system.cpu0.iq.issued_per_cycle::min_value            0                       # Number of insts issued each cycle
system.cpu0.iq.issued_per_cycle::max_value            8                       # Number of insts issued each cycle
system.cpu0.iq.issued_per_cycle::total     1718269067                       # Number of insts issued each cycle
system.cpu0.iq.rate                          0.552859                       # Inst issue rate
system.cpu0.iq.vec_alu_accesses                     0                       # Number of vector alu accesses
system.cpu0.iq.vec_inst_queue_reads                 0                       # Number of vector instruction queue reads
system.cpu0.iq.vec_inst_queue_wakeup_accesses            0                       # Number of vector instruction queue wakeup accesses
system.cpu0.iq.vec_inst_queue_writes                0                       # Number of vector instruction queue writes
system.cpu0.itb.accesses                            0                       # DTB accesses
system.cpu0.itb.hits                                0                       # DTB hits
system.cpu0.itb.misses                              0                       # DTB misses
system.cpu0.itb.read_accesses                       0                       # DTB read accesses
system.cpu0.itb.read_hits                           0                       # DTB read hits
system.cpu0.itb.read_misses                         0                       # DTB read misses
system.cpu0.itb.write_accesses                      0                       # DTB write accesses
system.cpu0.itb.write_hits                          0                       # DTB write hits
system.cpu0.itb.write_misses                        0                       # DTB write misses
system.cpu0.memDep0.conflictingLoads         15184498                       # Number of conflicting loads.
system.cpu0.memDep0.conflictingStores         1125266                       # Number of conflicting stores.
system.cpu0.memDep0.insertedLoads           331642238                       # Number of loads inserted to the mem dependence unit.
system.cpu0.memDep0.insertedStores          128320798                       # Number of stores inserted to the mem dependence unit.
system.cpu0.misc_regfile_reads                   1665                       # number of misc regfile reads
system.cpu0.misc_regfile_writes                    22                       # number of misc regfile writes
system.cpu0.numCycles                      1895283013                       # number of cpu cycles simulated
system.cpu0.numWorkItemsCompleted                   0                       # number of work items this cpu completed
system.cpu0.numWorkItemsStarted                     0                       # number of work items this cpu started
system.cpu0.quiesceCycles                    17237820                       # Total number of cycles that CPU has spent quiesced or waiting for an interrupt
system.cpu0.rename.BlockCycles              165871539                       # Number of cycles rename is blocking
system.cpu0.rename.CommittedMaps            647581631                       # Number of HB maps that are committed
system.cpu0.rename.IQFullEvents               6906669                       # Number of times rename has blocked due to IQ full
system.cpu0.rename.IdleCycles               765839226                       # Number of cycles rename is idle
system.cpu0.rename.LQFullEvents               8805730                       # Number of times rename has blocked due to LQ full
system.cpu0.rename.ROBFullEvents                14321                       # Number of times rename has blocked due to ROB full
system.cpu0.rename.RenameLookups           1301337976                       # Number of register rename lookups that rename has made
system.cpu0.rename.RenamedInsts            1062645297                       # Number of instructions processed by rename
system.cpu0.rename.RenamedOperands          683112985                       # Number of destination operands rename has renamed
system.cpu0.rename.RunCycles                746188102                       # Number of cycles rename is running
system.cpu0.rename.SQFullEvents              14611295                       # Number of times rename has blocked due to SQ full
system.cpu0.rename.SquashCycles               9934438                       # Number of cycles rename is squashing
system.cpu0.rename.UnblockCycles             30094748                       # Number of cycles rename is unblocking
system.cpu0.rename.UndoneMaps                35531294                       # Number of HB maps that are undone due to squashing
system.cpu0.rename.fp_rename_lookups               44                       # Number of floating rename lookups
system.cpu0.rename.int_rename_lookups      1301337932                       # Number of integer rename lookups
system.cpu0.rename.serializeStallCycles        341014                       # count of cycles rename stalled for serializing inst
system.cpu0.rename.serializingInsts              5058                       # count of serializing insts renamed
system.cpu0.rename.skidInsts                 14725101                       # count of insts added to the skid buffer
system.cpu0.rename.tempSerializingInsts          5058                       # count of temporary serializing insts renamed
system.cpu0.rob.rob_reads                  2719977403                       # The number of ROB reads
system.cpu0.rob.rob_writes                 2104941923                       # The number of ROB writes
system.cpu0.timesIdled                       26439455                       # Number of times that the entire CPU went into an idle state and unscheduled itself
system.cpu0.workload.numSyscalls                 1632                       # Number of system calls
system.cpu1.branchPred.BTBCorrect                   0                       # Number of correct BTB predictions (this stat may not work properly.
system.cpu1.branchPred.BTBHitPct            83.108444                       # BTB Hit Percentage
system.cpu1.branchPred.BTBHits                5981259                       # Number of BTB hits
system.cpu1.branchPred.BTBLookups             7196933                       # Number of BTB lookups
system.cpu1.branchPred.RASInCorrect                 0                       # Number of incorrect RAS predictions.
system.cpu1.branchPred.condIncorrect           789504                       # Number of conditional branches incorrect
system.cpu1.branchPred.condPredicted          9842613                       # Number of conditional branches predicted
system.cpu1.branchPred.indirectHits            227374                       # Number of indirect target hits.
system.cpu1.branchPred.indirectLookups         237229                       # Number of indirect predictor lookups.
system.cpu1.branchPred.indirectMisses            9855                       # Number of indirect misses.
system.cpu1.branchPred.lookups               11167168                       # Number of BP lookups
system.cpu1.branchPred.usedRAS                      0                       # Number of times the RAS was used to get a target.
system.cpu1.branchPredindirectMispredicted        13332                       # Number of mispredicted indirect branches.
system.cpu1.commit.amos                        905811                       # Number of atomic instructions committed
system.cpu1.commit.branchMispredicts           641127                       # The number of times a branch was mispredicted
system.cpu1.commit.branches                   8767905                       # Number of branches committed
system.cpu1.commit.bw_lim_events               840275                       # number cycles where commit BW limit reached
system.cpu1.commit.commitNonSpecStalls        2718075                       # The number of times commit has been forced to stall to communicate backwards
system.cpu1.commit.commitSquashedInsts        4927806                       # The number of squashed insts skipped by commit
system.cpu1.commit.committedInsts            37207521                       # Number of instructions committed
system.cpu1.commit.committedOps              38113510                       # Number of ops (including micro ops) committed
system.cpu1.commit.committed_per_cycle::samples    212897499                       # Number of insts commited each cycle
system.cpu1.commit.committed_per_cycle::mean     0.179023                       # Number of insts commited each cycle
system.cpu1.commit.committed_per_cycle::stdev     0.822244                       # Number of insts commited each cycle
system.cpu1.commit.committed_per_cycle::underflows            0      0.00%      0.00% # Number of insts commited each cycle
system.cpu1.commit.committed_per_cycle::0    196954482     92.51%     92.51% # Number of insts commited each cycle
system.cpu1.commit.committed_per_cycle::1      7709716      3.62%     96.13% # Number of insts commited each cycle
system.cpu1.commit.committed_per_cycle::2      2785440      1.31%     97.44% # Number of insts commited each cycle
system.cpu1.commit.committed_per_cycle::3      2545123      1.20%     98.64% # Number of insts commited each cycle
system.cpu1.commit.committed_per_cycle::4       864822      0.41%     99.04% # Number of insts commited each cycle
system.cpu1.commit.committed_per_cycle::5       239858      0.11%     99.16% # Number of insts commited each cycle
system.cpu1.commit.committed_per_cycle::6       887714      0.42%     99.57% # Number of insts commited each cycle
system.cpu1.commit.committed_per_cycle::7        70069      0.03%     99.61% # Number of insts commited each cycle
system.cpu1.commit.committed_per_cycle::8       840275      0.39%    100.00% # Number of insts commited each cycle
system.cpu1.commit.committed_per_cycle::overflows            0      0.00%    100.00% # Number of insts commited each cycle
system.cpu1.commit.committed_per_cycle::min_value            0                       # Number of insts commited each cycle
system.cpu1.commit.committed_per_cycle::max_value            8                       # Number of insts commited each cycle
system.cpu1.commit.committed_per_cycle::total    212897499                       # Number of insts commited each cycle
system.cpu1.commit.fp_insts                        12                       # Number of committed floating point instructions.
system.cpu1.commit.function_calls              377848                       # Number of function calls committed.
system.cpu1.commit.int_insts                 35823206                       # Number of committed integer instructions.
system.cpu1.commit.loads                     10300449                       # Number of loads committed
system.cpu1.commit.membars                    1811675                       # Number of memory barriers committed
system.cpu1.commit.op_class_0::No_OpClass      1811675      4.75%      4.75% # Class of committed instruction
system.cpu1.commit.op_class_0::IntAlu        22368264     58.69%     63.44% # Class of committed instruction
system.cpu1.commit.op_class_0::IntMult             43      0.00%     63.44% # Class of committed instruction
system.cpu1.commit.op_class_0::IntDiv              86      0.00%     63.44% # Class of committed instruction
system.cpu1.commit.op_class_0::FloatAdd             0      0.00%     63.44% # Class of committed instruction
system.cpu1.commit.op_class_0::FloatCmp             0      0.00%     63.44% # Class of committed instruction
system.cpu1.commit.op_class_0::FloatCvt             0      0.00%     63.44% # Class of committed instruction
system.cpu1.commit.op_class_0::FloatMult            0      0.00%     63.44% # Class of committed instruction
system.cpu1.commit.op_class_0::FloatMultAcc            0      0.00%     63.44% # Class of committed instruction
system.cpu1.commit.op_class_0::FloatDiv             0      0.00%     63.44% # Class of committed instruction
system.cpu1.commit.op_class_0::FloatMisc            0      0.00%     63.44% # Class of committed instruction
system.cpu1.commit.op_class_0::FloatSqrt            0      0.00%     63.44% # Class of committed instruction
system.cpu1.commit.op_class_0::SimdAdd              0      0.00%     63.44% # Class of committed instruction
system.cpu1.commit.op_class_0::SimdAddAcc            0      0.00%     63.44% # Class of committed instruction
system.cpu1.commit.op_class_0::SimdAlu              0      0.00%     63.44% # Class of committed instruction
system.cpu1.commit.op_class_0::SimdCmp              0      0.00%     63.44% # Class of committed instruction
system.cpu1.commit.op_class_0::SimdCvt              0      0.00%     63.44% # Class of committed instruction
system.cpu1.commit.op_class_0::SimdMisc             0      0.00%     63.44% # Class of committed instruction
system.cpu1.commit.op_class_0::SimdMult             0      0.00%     63.44% # Class of committed instruction
system.cpu1.commit.op_class_0::SimdMultAcc            0      0.00%     63.44% # Class of committed instruction
system.cpu1.commit.op_class_0::SimdShift            0      0.00%     63.44% # Class of committed instruction
system.cpu1.commit.op_class_0::SimdShiftAcc            0      0.00%     63.44% # Class of committed instruction
system.cpu1.commit.op_class_0::SimdDiv              0      0.00%     63.44% # Class of committed instruction
system.cpu1.commit.op_class_0::SimdSqrt             0      0.00%     63.44% # Class of committed instruction
system.cpu1.commit.op_class_0::SimdFloatAdd            0      0.00%     63.44% # Class of committed instruction
system.cpu1.commit.op_class_0::SimdFloatAlu            0      0.00%     63.44% # Class of committed instruction
system.cpu1.commit.op_class_0::SimdFloatCmp            0      0.00%     63.44% # Class of committed instruction
system.cpu1.commit.op_class_0::SimdFloatCvt            0      0.00%     63.44% # Class of committed instruction
system.cpu1.commit.op_class_0::SimdFloatDiv            0      0.00%     63.44% # Class of committed instruction
system.cpu1.commit.op_class_0::SimdFloatMisc            0      0.00%     63.44% # Class of committed instruction
system.cpu1.commit.op_class_0::SimdFloatMult            0      0.00%     63.44% # Class of committed instruction
system.cpu1.commit.op_class_0::SimdFloatMultAcc            0      0.00%     63.44% # Class of committed instruction
system.cpu1.commit.op_class_0::SimdFloatSqrt            0      0.00%     63.44% # Class of committed instruction
system.cpu1.commit.op_class_0::SimdReduceAdd            0      0.00%     63.44% # Class of committed instruction
system.cpu1.commit.op_class_0::SimdReduceAlu            0      0.00%     63.44% # Class of committed instruction
system.cpu1.commit.op_class_0::SimdReduceCmp            0      0.00%     63.44% # Class of committed instruction
system.cpu1.commit.op_class_0::SimdFloatReduceAdd            0      0.00%     63.44% # Class of committed instruction
system.cpu1.commit.op_class_0::SimdFloatReduceCmp            0      0.00%     63.44% # Class of committed instruction
system.cpu1.commit.op_class_0::SimdAes              0      0.00%     63.44% # Class of committed instruction
system.cpu1.commit.op_class_0::SimdAesMix            0      0.00%     63.44% # Class of committed instruction
system.cpu1.commit.op_class_0::SimdSha1Hash            0      0.00%     63.44% # Class of committed instruction
system.cpu1.commit.op_class_0::SimdSha1Hash2            0      0.00%     63.44% # Class of committed instruction
system.cpu1.commit.op_class_0::SimdSha256Hash            0      0.00%     63.44% # Class of committed instruction
system.cpu1.commit.op_class_0::SimdSha256Hash2            0      0.00%     63.44% # Class of committed instruction
system.cpu1.commit.op_class_0::SimdShaSigma2            0      0.00%     63.44% # Class of committed instruction
system.cpu1.commit.op_class_0::SimdShaSigma3            0      0.00%     63.44% # Class of committed instruction
system.cpu1.commit.op_class_0::SimdPredAlu            0      0.00%     63.44% # Class of committed instruction
system.cpu1.commit.op_class_0::MemRead       11206260     29.40%     92.84% # Class of committed instruction
system.cpu1.commit.op_class_0::MemWrite       2727170      7.16%    100.00% # Class of committed instruction
system.cpu1.commit.op_class_0::FloatMemRead            0      0.00%    100.00% # Class of committed instruction
system.cpu1.commit.op_class_0::FloatMemWrite           12      0.00%    100.00% # Class of committed instruction
system.cpu1.commit.op_class_0::IprAccess            0      0.00%    100.00% # Class of committed instruction
system.cpu1.commit.op_class_0::InstPrefetch            0      0.00%    100.00% # Class of committed instruction
system.cpu1.commit.op_class_0::total         38113510                       # Class of committed instruction
system.cpu1.commit.refs                      13933442                       # Number of memory references committed
system.cpu1.commit.swp_count                        0                       # Number of s/w prefetches committed
system.cpu1.commit.vec_insts                        0                       # Number of committed Vector instructions.
system.cpu1.committedInsts                   37207521                       # Number of Instructions Simulated
system.cpu1.committedOps                     38113510                       # Number of Ops (including micro ops) Simulated
system.cpu1.cpi                              5.758501                       # CPI: Cycles Per Instruction
system.cpu1.cpi_total                        5.758501                       # CPI: Total CPI of All Threads
system.cpu1.decode.BlockedCycles            187640313                       # Number of cycles decode is blocked
system.cpu1.decode.BranchMispred               157447                       # Number of times decode detected a branch misprediction
system.cpu1.decode.BranchResolved             5716982                       # Number of times decode resolved a branch
system.cpu1.decode.DecodedInsts              45517089                       # Number of instructions handled by decode
system.cpu1.decode.IdleCycles                 5891023                       # Number of cycles decode is idle
system.cpu1.decode.RunCycles                 17621827                       # Number of cycles decode is running
system.cpu1.decode.SquashCycles                642258                       # Number of cycles decode is squashing
system.cpu1.decode.SquashedInsts               362718                       # Number of squashed instructions handled by decode
system.cpu1.decode.UnblockCycles              2093920                       # Number of cycles decode is unblocking
system.cpu1.dtb.accesses                            0                       # DTB accesses
system.cpu1.dtb.hits                                0                       # DTB hits
system.cpu1.dtb.misses                              0                       # DTB misses
system.cpu1.dtb.read_accesses                       0                       # DTB read accesses
system.cpu1.dtb.read_hits                           0                       # DTB read hits
system.cpu1.dtb.read_misses                         0                       # DTB read misses
system.cpu1.dtb.write_accesses                      0                       # DTB write accesses
system.cpu1.dtb.write_hits                          0                       # DTB write hits
system.cpu1.dtb.write_misses                        0                       # DTB write misses
system.cpu1.fetch.Branches                   11167168                       # Number of branches that fetch encountered
system.cpu1.fetch.CacheLines                  5676225                       # Number of cache lines fetched
system.cpu1.fetch.Cycles                    206718877                       # Number of cycles fetch has run and was not squashing or blocked
system.cpu1.fetch.IcacheSquashes                82630                       # Number of outstanding Icache misses that were squashed
system.cpu1.fetch.Insts                      46481179                       # Number of instructions fetch has processed
system.cpu1.fetch.MiscStallCycles                   1                       # Number of cycles fetch has spent waiting on interrupts, or bad addresses, or out of MSHRs
system.cpu1.fetch.SquashCycles                1581270                       # Number of cycles fetch has spent squashing
system.cpu1.fetch.branchRate                 0.052120                       # Number of branch fetches per cycle
system.cpu1.fetch.icacheStallCycles           6379828                       # Number of cycles fetch is stalled on an Icache miss
system.cpu1.fetch.predictedBranches           6208633                       # Number of branches that fetch has predicted taken
system.cpu1.fetch.rate                       0.216939                       # Number of inst fetches per cycle
system.cpu1.fetch.rateDist::samples         213889341                       # Number of instructions fetched each cycle (Total)
system.cpu1.fetch.rateDist::mean             0.221555                       # Number of instructions fetched each cycle (Total)
system.cpu1.fetch.rateDist::stdev            0.648802                       # Number of instructions fetched each cycle (Total)
system.cpu1.fetch.rateDist::underflows              0      0.00%      0.00% # Number of instructions fetched each cycle (Total)
system.cpu1.fetch.rateDist::0               184432562     86.23%     86.23% # Number of instructions fetched each cycle (Total)
system.cpu1.fetch.rateDist::1                17854392      8.35%     94.58% # Number of instructions fetched each cycle (Total)
system.cpu1.fetch.rateDist::2                 7080386      3.31%     97.89% # Number of instructions fetched each cycle (Total)
system.cpu1.fetch.rateDist::3                 3070487      1.44%     99.32% # Number of instructions fetched each cycle (Total)
system.cpu1.fetch.rateDist::4                 1192821      0.56%     99.88% # Number of instructions fetched each cycle (Total)
system.cpu1.fetch.rateDist::5                  196751      0.09%     99.97% # Number of instructions fetched each cycle (Total)
system.cpu1.fetch.rateDist::6                   44385      0.02%     99.99% # Number of instructions fetched each cycle (Total)
system.cpu1.fetch.rateDist::7                      83      0.00%     99.99% # Number of instructions fetched each cycle (Total)
system.cpu1.fetch.rateDist::8                   17474      0.01%    100.00% # Number of instructions fetched each cycle (Total)
system.cpu1.fetch.rateDist::overflows               0      0.00%    100.00% # Number of instructions fetched each cycle (Total)
system.cpu1.fetch.rateDist::min_value               0                       # Number of instructions fetched each cycle (Total)
system.cpu1.fetch.rateDist::max_value               8                       # Number of instructions fetched each cycle (Total)
system.cpu1.fetch.rateDist::total           213889341                       # Number of instructions fetched each cycle (Total)
system.cpu1.fp_regfile_reads                       12                       # number of floating regfile reads
system.cpu1.idleCycles                         370200                       # Total number of cycles that the CPU has spent unscheduled due to idling
system.cpu1.iew.branchMispredicts              684507                       # Number of branch mispredicts detected at execute
system.cpu1.iew.exec_branches                 9429558                       # Number of branches executed
system.cpu1.iew.exec_nop                            0                       # number of nop insts executed
system.cpu1.iew.exec_rate                    0.192915                       # Inst execution rate
system.cpu1.iew.exec_refs                    15043076                       # number of memory reference insts executed
system.cpu1.iew.exec_stores                   3880693                       # Number of stores executed
system.cpu1.iew.exec_swp                            0                       # number of swp insts executed
system.cpu1.iew.iewBlockCycles              161463601                       # Number of cycles IEW is blocking
system.cpu1.iew.iewDispLoadInsts             11481962                       # Number of dispatched load instructions
system.cpu1.iew.iewDispNonSpecInsts            906644                       # Number of dispatched non-speculative instructions
system.cpu1.iew.iewDispSquashedInsts           675220                       # Number of squashed instructions skipped by dispatch
system.cpu1.iew.iewDispStoreInsts             4072750                       # Number of dispatched store instructions
system.cpu1.iew.iewDispatchedInsts           43034304                       # Number of instructions dispatched to IQ
system.cpu1.iew.iewExecLoadInsts             11162383                       # Number of load instructions executed
system.cpu1.iew.iewExecSquashedInsts           695998                       # Number of squashed instructions skipped in execute
system.cpu1.iew.iewExecutedInsts             41333783                       # Number of executed instructions
system.cpu1.iew.iewIQFullEvents                809999                       # Number of times the IQ has become full, causing a stall
system.cpu1.iew.iewIdleCycles                       0                       # Number of cycles IEW is idle
system.cpu1.iew.iewLSQFullEvents               867121                       # Number of times the LSQ has become full, causing a stall
system.cpu1.iew.iewSquashCycles                642258                       # Number of cycles IEW is squashing
system.cpu1.iew.iewUnblockCycles              2664566                       # Number of cycles IEW is unblocking
system.cpu1.iew.lsq.thread0.blockedLoads            0                       # Number of blocked loads due to partial load-store forwarding
system.cpu1.iew.lsq.thread0.cacheBlocked        27018                       # Number of times an access to memory failed due to the cache being blocked
system.cpu1.iew.lsq.thread0.forwLoads          197796                       # Number of loads that had data forwarded from stores
system.cpu1.iew.lsq.thread0.ignoredResponses         5863                       # Number of memory responses ignored because the instruction is squashed
system.cpu1.iew.lsq.thread0.invAddrLoads            0                       # Number of loads ignored due to an invalid address
system.cpu1.iew.lsq.thread0.invAddrSwpfs            0                       # Number of software prefetches ignored due to an invalid address
system.cpu1.iew.lsq.thread0.memOrderViolation         1591                       # Number of memory ordering violations
system.cpu1.iew.lsq.thread0.rescheduledLoads         4597                       # Number of loads that were rescheduled
system.cpu1.iew.lsq.thread0.squashedLoads      1181513                       # Number of loads squashed
system.cpu1.iew.lsq.thread0.squashedStores       439757                       # Number of stores squashed
system.cpu1.iew.memOrderViolationEvents          1591                       # Number of memory order violations
system.cpu1.iew.predictedNotTakenIncorrect       251403                       # Number of branches that were predicted not taken incorrectly
system.cpu1.iew.predictedTakenIncorrect        433104                       # Number of branches that were predicted taken incorrectly
system.cpu1.iew.wb_consumers                 22494975                       # num instructions consuming a value
system.cpu1.iew.wb_count                     40817850                       # cumulative count of insts written-back
system.cpu1.iew.wb_fanout                    0.835642                       # average fanout of values written-back
system.cpu1.iew.wb_producers                 18797749                       # num instructions producing a value
system.cpu1.iew.wb_rate                      0.190507                       # insts written-back per cycle
system.cpu1.iew.wb_sent                      40839407                       # cumulative count of insts sent to commit
system.cpu1.int_regfile_reads                52317440                       # number of integer regfile reads
system.cpu1.int_regfile_writes               26834705                       # number of integer regfile writes
system.cpu1.ipc                              0.173656                       # IPC: Instructions Per Cycle
system.cpu1.ipc_total                        0.173656                       # IPC: Total IPC of All Threads
system.cpu1.iq.FU_type_0::No_OpClass          1811879      4.31%      4.31% # Type of FU issued
system.cpu1.iq.FU_type_0::IntAlu             24944169     59.35%     63.66% # Type of FU issued
system.cpu1.iq.FU_type_0::IntMult                  47      0.00%     63.66% # Type of FU issued
system.cpu1.iq.FU_type_0::IntDiv                   86      0.00%     63.66% # Type of FU issued
system.cpu1.iq.FU_type_0::FloatAdd                  0      0.00%     63.66% # Type of FU issued
system.cpu1.iq.FU_type_0::FloatCmp                  0      0.00%     63.66% # Type of FU issued
system.cpu1.iq.FU_type_0::FloatCvt                  0      0.00%     63.66% # Type of FU issued
system.cpu1.iq.FU_type_0::FloatMult                 0      0.00%     63.66% # Type of FU issued
system.cpu1.iq.FU_type_0::FloatMultAcc              0      0.00%     63.66% # Type of FU issued
system.cpu1.iq.FU_type_0::FloatDiv                  0      0.00%     63.66% # Type of FU issued
system.cpu1.iq.FU_type_0::FloatMisc                 0      0.00%     63.66% # Type of FU issued
system.cpu1.iq.FU_type_0::FloatSqrt                 0      0.00%     63.66% # Type of FU issued
system.cpu1.iq.FU_type_0::SimdAdd                   0      0.00%     63.66% # Type of FU issued
system.cpu1.iq.FU_type_0::SimdAddAcc                0      0.00%     63.66% # Type of FU issued
system.cpu1.iq.FU_type_0::SimdAlu                   0      0.00%     63.66% # Type of FU issued
system.cpu1.iq.FU_type_0::SimdCmp                   0      0.00%     63.66% # Type of FU issued
system.cpu1.iq.FU_type_0::SimdCvt                   0      0.00%     63.66% # Type of FU issued
system.cpu1.iq.FU_type_0::SimdMisc                  0      0.00%     63.66% # Type of FU issued
system.cpu1.iq.FU_type_0::SimdMult                  0      0.00%     63.66% # Type of FU issued
system.cpu1.iq.FU_type_0::SimdMultAcc               0      0.00%     63.66% # Type of FU issued
system.cpu1.iq.FU_type_0::SimdShift                 0      0.00%     63.66% # Type of FU issued
system.cpu1.iq.FU_type_0::SimdShiftAcc              0      0.00%     63.66% # Type of FU issued
system.cpu1.iq.FU_type_0::SimdDiv                   0      0.00%     63.66% # Type of FU issued
system.cpu1.iq.FU_type_0::SimdSqrt                  0      0.00%     63.66% # Type of FU issued
system.cpu1.iq.FU_type_0::SimdFloatAdd              0      0.00%     63.66% # Type of FU issued
system.cpu1.iq.FU_type_0::SimdFloatAlu              0      0.00%     63.66% # Type of FU issued
system.cpu1.iq.FU_type_0::SimdFloatCmp              0      0.00%     63.66% # Type of FU issued
system.cpu1.iq.FU_type_0::SimdFloatCvt              0      0.00%     63.66% # Type of FU issued
system.cpu1.iq.FU_type_0::SimdFloatDiv              0      0.00%     63.66% # Type of FU issued
system.cpu1.iq.FU_type_0::SimdFloatMisc             0      0.00%     63.66% # Type of FU issued
system.cpu1.iq.FU_type_0::SimdFloatMult             0      0.00%     63.66% # Type of FU issued
system.cpu1.iq.FU_type_0::SimdFloatMultAcc            0      0.00%     63.66% # Type of FU issued
system.cpu1.iq.FU_type_0::SimdFloatSqrt             0      0.00%     63.66% # Type of FU issued
system.cpu1.iq.FU_type_0::SimdReduceAdd             0      0.00%     63.66% # Type of FU issued
system.cpu1.iq.FU_type_0::SimdReduceAlu             0      0.00%     63.66% # Type of FU issued
system.cpu1.iq.FU_type_0::SimdReduceCmp             0      0.00%     63.66% # Type of FU issued
system.cpu1.iq.FU_type_0::SimdFloatReduceAdd            0      0.00%     63.66% # Type of FU issued
system.cpu1.iq.FU_type_0::SimdFloatReduceCmp            0      0.00%     63.66% # Type of FU issued
system.cpu1.iq.FU_type_0::SimdAes                   0      0.00%     63.66% # Type of FU issued
system.cpu1.iq.FU_type_0::SimdAesMix                0      0.00%     63.66% # Type of FU issued
system.cpu1.iq.FU_type_0::SimdSha1Hash              0      0.00%     63.66% # Type of FU issued
system.cpu1.iq.FU_type_0::SimdSha1Hash2             0      0.00%     63.66% # Type of FU issued
system.cpu1.iq.FU_type_0::SimdSha256Hash            0      0.00%     63.66% # Type of FU issued
system.cpu1.iq.FU_type_0::SimdSha256Hash2            0      0.00%     63.66% # Type of FU issued
system.cpu1.iq.FU_type_0::SimdShaSigma2             0      0.00%     63.66% # Type of FU issued
system.cpu1.iq.FU_type_0::SimdShaSigma3             0      0.00%     63.66% # Type of FU issued
system.cpu1.iq.FU_type_0::SimdPredAlu               0      0.00%     63.66% # Type of FU issued
system.cpu1.iq.FU_type_0::MemRead            12263356     29.18%     92.84% # Type of FU issued
system.cpu1.iq.FU_type_0::MemWrite            3010232      7.16%    100.00% # Type of FU issued
system.cpu1.iq.FU_type_0::FloatMemRead              0      0.00%    100.00% # Type of FU issued
system.cpu1.iq.FU_type_0::FloatMemWrite            12      0.00%    100.00% # Type of FU issued
system.cpu1.iq.FU_type_0::IprAccess                 0      0.00%    100.00% # Type of FU issued
system.cpu1.iq.FU_type_0::InstPrefetch              0      0.00%    100.00% # Type of FU issued
system.cpu1.iq.FU_type_0::total              42029781                       # Type of FU issued
system.cpu1.iq.fp_alu_accesses                     14                       # Number of floating point alu accesses
system.cpu1.iq.fp_inst_queue_reads                 26                       # Number of floating instruction queue reads
system.cpu1.iq.fp_inst_queue_wakeup_accesses           12                       # Number of floating instruction queue wakeup accesses
system.cpu1.iq.fp_inst_queue_writes                12                       # Number of floating instruction queue writes
system.cpu1.iq.fu_busy_cnt                    1046352                       # FU busy when requested
system.cpu1.iq.fu_busy_rate                  0.024895                       # FU busy rate (busy events/executed inst)
system.cpu1.iq.fu_full::No_OpClass                  0      0.00%      0.00% # attempts to use FU when none available
system.cpu1.iq.fu_full::IntAlu                 199125     19.03%     19.03% # attempts to use FU when none available
system.cpu1.iq.fu_full::IntMult                     0      0.00%     19.03% # attempts to use FU when none available
system.cpu1.iq.fu_full::IntDiv                      0      0.00%     19.03% # attempts to use FU when none available
system.cpu1.iq.fu_full::FloatAdd                    0      0.00%     19.03% # attempts to use FU when none available
system.cpu1.iq.fu_full::FloatCmp                    0      0.00%     19.03% # attempts to use FU when none available
system.cpu1.iq.fu_full::FloatCvt                    0      0.00%     19.03% # attempts to use FU when none available
system.cpu1.iq.fu_full::FloatMult                   0      0.00%     19.03% # attempts to use FU when none available
system.cpu1.iq.fu_full::FloatMultAcc                0      0.00%     19.03% # attempts to use FU when none available
system.cpu1.iq.fu_full::FloatDiv                    0      0.00%     19.03% # attempts to use FU when none available
system.cpu1.iq.fu_full::FloatMisc                   0      0.00%     19.03% # attempts to use FU when none available
system.cpu1.iq.fu_full::FloatSqrt                   0      0.00%     19.03% # attempts to use FU when none available
system.cpu1.iq.fu_full::SimdAdd                     0      0.00%     19.03% # attempts to use FU when none available
system.cpu1.iq.fu_full::SimdAddAcc                  0      0.00%     19.03% # attempts to use FU when none available
system.cpu1.iq.fu_full::SimdAlu                     0      0.00%     19.03% # attempts to use FU when none available
system.cpu1.iq.fu_full::SimdCmp                     0      0.00%     19.03% # attempts to use FU when none available
system.cpu1.iq.fu_full::SimdCvt                     0      0.00%     19.03% # attempts to use FU when none available
system.cpu1.iq.fu_full::SimdMisc                    0      0.00%     19.03% # attempts to use FU when none available
system.cpu1.iq.fu_full::SimdMult                    0      0.00%     19.03% # attempts to use FU when none available
system.cpu1.iq.fu_full::SimdMultAcc                 0      0.00%     19.03% # attempts to use FU when none available
system.cpu1.iq.fu_full::SimdShift                   0      0.00%     19.03% # attempts to use FU when none available
system.cpu1.iq.fu_full::SimdShiftAcc                0      0.00%     19.03% # attempts to use FU when none available
system.cpu1.iq.fu_full::SimdDiv                     0      0.00%     19.03% # attempts to use FU when none available
system.cpu1.iq.fu_full::SimdSqrt                    0      0.00%     19.03% # attempts to use FU when none available
system.cpu1.iq.fu_full::SimdFloatAdd                0      0.00%     19.03% # attempts to use FU when none available
system.cpu1.iq.fu_full::SimdFloatAlu                0      0.00%     19.03% # attempts to use FU when none available
system.cpu1.iq.fu_full::SimdFloatCmp                0      0.00%     19.03% # attempts to use FU when none available
system.cpu1.iq.fu_full::SimdFloatCvt                0      0.00%     19.03% # attempts to use FU when none available
system.cpu1.iq.fu_full::SimdFloatDiv                0      0.00%     19.03% # attempts to use FU when none available
system.cpu1.iq.fu_full::SimdFloatMisc               0      0.00%     19.03% # attempts to use FU when none available
system.cpu1.iq.fu_full::SimdFloatMult               0      0.00%     19.03% # attempts to use FU when none available
system.cpu1.iq.fu_full::SimdFloatMultAcc            0      0.00%     19.03% # attempts to use FU when none available
system.cpu1.iq.fu_full::SimdFloatSqrt               0      0.00%     19.03% # attempts to use FU when none available
system.cpu1.iq.fu_full::SimdReduceAdd               0      0.00%     19.03% # attempts to use FU when none available
system.cpu1.iq.fu_full::SimdReduceAlu               0      0.00%     19.03% # attempts to use FU when none available
system.cpu1.iq.fu_full::SimdReduceCmp               0      0.00%     19.03% # attempts to use FU when none available
system.cpu1.iq.fu_full::SimdFloatReduceAdd            0      0.00%     19.03% # attempts to use FU when none available
system.cpu1.iq.fu_full::SimdFloatReduceCmp            0      0.00%     19.03% # attempts to use FU when none available
system.cpu1.iq.fu_full::SimdAes                     0      0.00%     19.03% # attempts to use FU when none available
system.cpu1.iq.fu_full::SimdAesMix                  0      0.00%     19.03% # attempts to use FU when none available
system.cpu1.iq.fu_full::SimdSha1Hash                0      0.00%     19.03% # attempts to use FU when none available
system.cpu1.iq.fu_full::SimdSha1Hash2               0      0.00%     19.03% # attempts to use FU when none available
system.cpu1.iq.fu_full::SimdSha256Hash              0      0.00%     19.03% # attempts to use FU when none available
system.cpu1.iq.fu_full::SimdSha256Hash2             0      0.00%     19.03% # attempts to use FU when none available
system.cpu1.iq.fu_full::SimdShaSigma2               0      0.00%     19.03% # attempts to use FU when none available
system.cpu1.iq.fu_full::SimdShaSigma3               0      0.00%     19.03% # attempts to use FU when none available
system.cpu1.iq.fu_full::SimdPredAlu                 0      0.00%     19.03% # attempts to use FU when none available
system.cpu1.iq.fu_full::MemRead                749101     71.59%     90.62% # attempts to use FU when none available
system.cpu1.iq.fu_full::MemWrite                98124      9.38%    100.00% # attempts to use FU when none available
[...]
system.cpu1.dcache.WriteReq_mshr_miss_rate::.cpu1.data     0.162921                       # mshr miss rate for WriteReq accesses
system.cpu1.dcache.WriteReq_mshr_miss_rate::total     0.162921                       # mshr miss rate for WriteReq accesses
system.cpu1.dcache.WriteReq_avg_mshr_miss_latency::.cpu1.data 115770.429469                       # average WriteReq mshr miss latency
system.cpu1.dcache.WriteReq_avg_mshr_miss_latency::total 115770.429469                       # average WriteReq mshr miss latency
system.cpu1.dcache.LoadLockedReq_hits::.cpu1.data      1197130                       # number of LoadLockedReq hits
system.cpu1.dcache.LoadLockedReq_hits::total      1197130                       # number of LoadLockedReq hits
system.cpu1.dcache.LoadLockedReq_misses::.cpu1.data         3736                       # number of LoadLockedReq misses
system.cpu1.dcache.LoadLockedReq_misses::total         3736                       # number of LoadLockedReq misses
system.cpu1.dcache.LoadLockedReq_miss_latency::.cpu1.data     71302000                       # number of LoadLockedReq miss cycles
system.cpu1.dcache.LoadLockedReq_miss_latency::total     71302000                       # number of LoadLockedReq miss cycles
system.cpu1.dcache.LoadLockedReq_accesses::.cpu1.data      1200866                       # number of LoadLockedReq accesses(hits+misses)
system.cpu1.dcache.LoadLockedReq_accesses::total      1200866                       # number of LoadLockedReq accesses(hits+misses)
system.cpu1.dcache.LoadLockedReq_miss_rate::.cpu1.data     0.003111                       # miss rate for LoadLockedReq accesses
system.cpu1.dcache.LoadLockedReq_miss_rate::total     0.003111                       # miss rate for LoadLockedReq accesses
system.cpu1.dcache.LoadLockedReq_avg_miss_latency::.cpu1.data 19085.117773                       # average LoadLockedReq miss latency
system.cpu1.dcache.LoadLockedReq_avg_miss_latency::total 19085.117773                       # average LoadLockedReq miss latency
system.cpu1.dcache.LoadLockedReq_mshr_hits::.cpu1.data          289                       # number of LoadLockedReq MSHR hits
system.cpu1.dcache.LoadLockedReq_mshr_hits::total          289                       # number of LoadLockedReq MSHR hits
system.cpu1.dcache.LoadLockedReq_mshr_misses::.cpu1.data         3447                       # number of LoadLockedReq MSHR misses
system.cpu1.dcache.LoadLockedReq_mshr_misses::total         3447                       # number of LoadLockedReq MSHR misses
system.cpu1.dcache.LoadLockedReq_mshr_miss_latency::.cpu1.data     59702500                       # number of LoadLockedReq MSHR miss cycles
system.cpu1.dcache.LoadLockedReq_mshr_miss_latency::total     59702500                       # number of LoadLockedReq MSHR miss cycles
system.cpu1.dcache.LoadLockedReq_mshr_miss_rate::.cpu1.data     0.002870                       # mshr miss rate for LoadLockedReq accesses
system.cpu1.dcache.LoadLockedReq_mshr_miss_rate::total     0.002870                       # mshr miss rate for LoadLockedReq accesses
system.cpu1.dcache.LoadLockedReq_avg_mshr_miss_latency::.cpu1.data 17320.133449                       # average LoadLockedReq mshr miss latency
system.cpu1.dcache.LoadLockedReq_avg_mshr_miss_latency::total 17320.133449                       # average LoadLockedReq mshr miss latency
system.cpu1.dcache.StoreCondReq_hits::.cpu1.data      1189409                       # number of StoreCondReq hits
system.cpu1.dcache.StoreCondReq_hits::total      1189409                       # number of StoreCondReq hits
system.cpu1.dcache.StoreCondReq_misses::.cpu1.data         8000                       # number of StoreCondReq misses
system.cpu1.dcache.StoreCondReq_misses::total         8000                       # number of StoreCondReq misses
system.cpu1.dcache.StoreCondReq_miss_latency::.cpu1.data     98233500                       # number of StoreCondReq miss cycles
system.cpu1.dcache.StoreCondReq_miss_latency::total     98233500                       # number of StoreCondReq miss cycles
system.cpu1.dcache.StoreCondReq_accesses::.cpu1.data      1197409                       # number of StoreCondReq accesses(hits+misses)
system.cpu1.dcache.StoreCondReq_accesses::total      1197409                       # number of StoreCondReq accesses(hits+misses)
system.cpu1.dcache.StoreCondReq_miss_rate::.cpu1.data     0.006681                       # miss rate for StoreCondReq accesses
system.cpu1.dcache.StoreCondReq_miss_rate::total     0.006681                       # miss rate for StoreCondReq accesses
system.cpu1.dcache.StoreCondReq_avg_miss_latency::.cpu1.data 12279.187500                       # average StoreCondReq miss latency
system.cpu1.dcache.StoreCondReq_avg_miss_latency::total 12279.187500                       # average StoreCondReq miss latency
system.cpu1.dcache.StoreCondReq_mshr_misses::.cpu1.data         7879                       # number of StoreCondReq MSHR misses
system.cpu1.dcache.StoreCondReq_mshr_misses::total         7879                       # number of StoreCondReq MSHR misses
system.cpu1.dcache.StoreCondReq_mshr_miss_latency::.cpu1.data     90613500                       # number of StoreCondReq MSHR miss cycles
system.cpu1.dcache.StoreCondReq_mshr_miss_latency::total     90613500                       # number of StoreCondReq MSHR miss cycles
system.cpu1.dcache.StoreCondReq_mshr_miss_rate::.cpu1.data     0.006580                       # mshr miss rate for StoreCondReq accesses
system.cpu1.dcache.StoreCondReq_mshr_miss_rate::total     0.006580                       # mshr miss rate for StoreCondReq accesses
system.cpu1.dcache.StoreCondReq_avg_mshr_miss_latency::.cpu1.data 11500.634598                       # average StoreCondReq mshr miss latency
system.cpu1.dcache.StoreCondReq_avg_mshr_miss_latency::total 11500.634598                       # average StoreCondReq mshr miss latency
system.cpu1.dcache.StoreCondFailReq_miss_latency::.cpu1.data      6038000                       # number of StoreCondFailReq miss cycles
system.cpu1.dcache.StoreCondFailReq_miss_latency::total      6038000                       # number of StoreCondFailReq miss cycles
system.cpu1.dcache.StoreCondFailReq_avg_miss_latency::.cpu1.data          inf                       # average StoreCondFailReq miss latency
system.cpu1.dcache.StoreCondFailReq_avg_miss_latency::total          inf                       # average StoreCondFailReq miss latency
system.cpu1.dcache.StoreCondFailReq_mshr_miss_latency::.cpu1.data      5779000                       # number of StoreCondFailReq MSHR miss cycles
system.cpu1.dcache.StoreCondFailReq_mshr_miss_latency::total      5779000                       # number of StoreCondFailReq MSHR miss cycles
system.cpu1.dcache.StoreCondFailReq_avg_mshr_miss_latency::.cpu1.data          inf                       # average StoreCondFailReq mshr miss latency
system.cpu1.dcache.StoreCondFailReq_avg_mshr_miss_latency::total          inf                       # average StoreCondFailReq mshr miss latency
system.cpu1.dcache.SwapReq_hits::.cpu1.data       207663                       # number of SwapReq hits
system.cpu1.dcache.SwapReq_hits::total         207663                       # number of SwapReq hits
system.cpu1.dcache.SwapReq_misses::.cpu1.data       684191                       # number of SwapReq misses
system.cpu1.dcache.SwapReq_misses::total       684191                       # number of SwapReq misses
system.cpu1.dcache.SwapReq_miss_latency::.cpu1.data  66396969664                       # number of SwapReq miss cycles
system.cpu1.dcache.SwapReq_miss_latency::total  66396969664                       # number of SwapReq miss cycles
system.cpu1.dcache.SwapReq_accesses::.cpu1.data       891854                       # number of SwapReq accesses(hits+misses)
system.cpu1.dcache.SwapReq_accesses::total       891854                       # number of SwapReq accesses(hits+misses)
system.cpu1.dcache.SwapReq_miss_rate::.cpu1.data     0.767156                       # miss rate for SwapReq accesses
system.cpu1.dcache.SwapReq_miss_rate::total     0.767156                       # miss rate for SwapReq accesses
system.cpu1.dcache.SwapReq_avg_miss_latency::.cpu1.data 97044.494394                       # average SwapReq miss latency
system.cpu1.dcache.SwapReq_avg_miss_latency::total 97044.494394                       # average SwapReq miss latency
system.cpu1.dcache.SwapReq_mshr_hits::.cpu1.data            5                       # number of SwapReq MSHR hits
system.cpu1.dcache.SwapReq_mshr_hits::total            5                       # number of SwapReq MSHR hits
system.cpu1.dcache.SwapReq_mshr_misses::.cpu1.data       684186                       # number of SwapReq MSHR misses
system.cpu1.dcache.SwapReq_mshr_misses::total       684186                       # number of SwapReq MSHR misses
system.cpu1.dcache.SwapReq_mshr_miss_latency::.cpu1.data  65712778664                       # number of SwapReq MSHR miss cycles
system.cpu1.dcache.SwapReq_mshr_miss_latency::total  65712778664                       # number of SwapReq MSHR miss cycles
system.cpu1.dcache.SwapReq_mshr_miss_rate::.cpu1.data     0.767150                       # mshr miss rate for SwapReq accesses
system.cpu1.dcache.SwapReq_mshr_miss_rate::total     0.767150                       # mshr miss rate for SwapReq accesses
system.cpu1.dcache.SwapReq_avg_mshr_miss_latency::.cpu1.data 96045.196283                       # average SwapReq mshr miss latency
system.cpu1.dcache.SwapReq_avg_mshr_miss_latency::total 96045.196283                       # average SwapReq mshr miss latency
system.cpu1.dcache.tags.pwrStateResidencyTicks::UNDEFINED 409343673500                       # Cumulative time (in ticks) in various power states
system.cpu1.dcache.tags.tagsinuse           31.625583                       # Cycle average of tags in use
system.cpu1.dcache.tags.total_refs           44027656                       # Total number of references to valid blocks.
system.cpu1.dcache.tags.sampled_refs          7451156                       # Sample count of references to valid blocks.
system.cpu1.dcache.tags.avg_refs             5.908836                       # Average number of references to valid blocks.
system.cpu1.dcache.tags.warmup_cycle                0                       # Cycle when the warmup percentage was hit.
system.cpu1.dcache.tags.occ_blocks::.cpu1.data    31.625583                       # Average occupied blocks per requestor
system.cpu1.dcache.tags.occ_percent::.cpu1.data     0.988299                       # Average percentage of cache occupancy
system.cpu1.dcache.tags.occ_percent::total     0.988299                       # Average percentage of cache occupancy
system.cpu1.dcache.tags.occ_task_id_blocks::1024           29                       # Occupied blocks per task id
system.cpu1.dcache.tags.age_task_id_blocks_1024::1           29                       # Occupied blocks per task id
system.cpu1.dcache.tags.occ_task_id_percent::1024     0.906250                       # Percentage of cache occupancy per task id
system.cpu1.dcache.tags.tag_accesses        106010642                       # Number of tag accesses
system.cpu1.dcache.tags.data_accesses       106010642                       # Number of data accesses
system.cpu_clk_domain.clock                       500                       # Clock period in ticks
system.tol2bus.pwrStateResidencyTicks::UNDEFINED 409343673500                       # Cumulative time (in ticks) in various power states
system.tol2bus.trans_dist::ReadResp          25897533                       # Transaction distribution
system.tol2bus.trans_dist::ReadRespWithInvalidate           34                       # Transaction distribution
system.tol2bus.trans_dist::WritebackDirty     12087049                       # Transaction distribution
system.tol2bus.trans_dist::WritebackClean     23693525                       # Transaction distribution
system.tol2bus.trans_dist::CleanEvict        46055336                       # Transaction distribution
system.tol2bus.trans_dist::UpgradeReq           27773                       # Transaction distribution
system.tol2bus.trans_dist::SCUpgradeReq         31621                       # Transaction distribution
system.tol2bus.trans_dist::UpgradeResp          59394                       # Transaction distribution
system.tol2bus.trans_dist::SCUpgradeFailReq          862                       # Transaction distribution
system.tol2bus.trans_dist::UpgradeFailResp          862                       # Transaction distribution
system.tol2bus.trans_dist::ReadExReq          4269770                       # Transaction distribution
system.tol2bus.trans_dist::ReadExResp         4269773                       # Transaction distribution
system.tol2bus.trans_dist::ReadCleanReq        225012                       # Transaction distribution
system.tol2bus.trans_dist::ReadSharedReq     25672555                       # Transaction distribution
system.tol2bus.trans_dist::InvalidateReq           33                       # Transaction distribution
system.tol2bus.trans_dist::InvalidateResp           33                       # Transaction distribution
system.tol2bus.pkt_count_system.cpu0.icache.mem_side::system.l2.cpu_side       257566                       # Packet count per connected master and slave (bytes)
system.tol2bus.pkt_count_system.cpu0.dcache.mem_side::system.l2.cpu_side     22246528                       # Packet count per connected master and slave (bytes)
system.tol2bus.pkt_count_system.cpu1.icache.mem_side::system.l2.cpu_side       139881                       # Packet count per connected master and slave (bytes)
system.tol2bus.pkt_count_system.cpu1.dcache.mem_side::system.l2.cpu_side     22295252                       # Packet count per connected master and slave (bytes)
system.tol2bus.pkt_count_system.cpu2.icache.mem_side::system.l2.cpu_side       137736                       # Packet count per connected master and slave (bytes)
system.tol2bus.pkt_count_system.cpu2.dcache.mem_side::system.l2.cpu_side     22287872                       # Packet count per connected master and slave (bytes)
system.tol2bus.pkt_count_system.cpu3.icache.mem_side::system.l2.cpu_side       139842                       # Packet count per connected master and slave (bytes)
system.tol2bus.pkt_count_system.cpu3.dcache.mem_side::system.l2.cpu_side     22772763                       # Packet count per connected master and slave (bytes)
system.tol2bus.pkt_count::total              90277440                       # Packet count per connected master and slave (bytes)
system.tol2bus.pkt_size_system.cpu0.icache.mem_side::system.l2.cpu_side     10989248                       # Cumulative packet size per connected master and slave (bytes)
system.tol2bus.pkt_size_system.cpu0.dcache.mem_side::system.l2.cpu_side    946771584                       # Cumulative packet size per connected master and slave (bytes)
system.tol2bus.pkt_size_system.cpu1.icache.mem_side::system.l2.cpu_side      5968256                       # Cumulative packet size per connected master and slave (bytes)
system.tol2bus.pkt_size_system.cpu1.dcache.mem_side::system.l2.cpu_side    948835008                       # Cumulative packet size per connected master and slave (bytes)
system.tol2bus.pkt_size_system.cpu2.icache.mem_side::system.l2.cpu_side      5876736                       # Cumulative packet size per connected master and slave (bytes)
system.tol2bus.pkt_size_system.cpu2.dcache.mem_side::system.l2.cpu_side    948518272                       # Cumulative packet size per connected master and slave (bytes)
system.tol2bus.pkt_size_system.cpu3.icache.mem_side::system.l2.cpu_side      5966592                       # Cumulative packet size per connected master and slave (bytes)
system.tol2bus.pkt_size_system.cpu3.dcache.mem_side::system.l2.cpu_side    969154368                       # Cumulative packet size per connected master and slave (bytes)
system.tol2bus.pkt_size::total             3842080064                       # Cumulative packet size per connected master and slave (bytes)
system.tol2bus.snoops                        52013725                       # Total snoops (count)
system.tol2bus.snoopTraffic                 378641600                       # Total snoop traffic (bytes)
system.tol2bus.snoop_fanout::samples         82039654                       # Request fanout histogram
system.tol2bus.snoop_fanout::mean            0.377255                       # Request fanout histogram
system.tol2bus.snoop_fanout::stdev           0.577622                       # Request fanout histogram
system.tol2bus.snoop_fanout::underflows             0      0.00%      0.00% # Request fanout histogram
system.tol2bus.snoop_fanout::0               53950833     65.76%     65.76% # Request fanout histogram
system.tol2bus.snoop_fanout::1               26297426     32.05%     97.82% # Request fanout histogram
system.tol2bus.snoop_fanout::2                 840313      1.02%     98.84% # Request fanout histogram
system.tol2bus.snoop_fanout::3                 832532      1.01%     99.86% # Request fanout histogram
system.tol2bus.snoop_fanout::4                 118548      0.14%    100.00% # Request fanout histogram
system.tol2bus.snoop_fanout::5                      2      0.00%    100.00% # Request fanout histogram
system.tol2bus.snoop_fanout::6                      0      0.00%    100.00% # Request fanout histogram
system.tol2bus.snoop_fanout::7                      0      0.00%    100.00% # Request fanout histogram
system.tol2bus.snoop_fanout::8                      0      0.00%    100.00% # Request fanout histogram
system.tol2bus.snoop_fanout::overflows              0      0.00%    100.00% # Request fanout histogram
system.tol2bus.snoop_fanout::min_value              0                       # Request fanout histogram
system.tol2bus.snoop_fanout::max_value              5                       # Request fanout histogram
system.tol2bus.snoop_fanout::total           82039654                       # Request fanout histogram
system.tol2bus.reqLayer0.occupancy        60150431550                       # Layer occupancy (ticks)
system.tol2bus.reqLayer0.utilization             14.7                       # Layer utilization (%)
system.tol2bus.respLayer5.occupancy       11198600609                       # Layer occupancy (ticks)
system.tol2bus.respLayer5.utilization             2.7                       # Layer utilization (%)
system.tol2bus.respLayer4.occupancy          70830076                       # Layer occupancy (ticks)
system.tol2bus.respLayer4.utilization             0.0                       # Layer utilization (%)
system.tol2bus.respLayer7.occupancy       11441568960                       # Layer occupancy (ticks)
system.tol2bus.respLayer7.utilization             2.8                       # Layer utilization (%)
system.tol2bus.respLayer6.occupancy          71840634                       # Layer occupancy (ticks)
system.tol2bus.respLayer6.utilization             0.0                       # Layer utilization (%)
system.tol2bus.respLayer1.occupancy       11175424200                       # Layer occupancy (ticks)
system.tol2bus.respLayer1.utilization             2.7                       # Layer utilization (%)
system.tol2bus.respLayer0.occupancy         129927563                       # Layer occupancy (ticks)
system.tol2bus.respLayer0.utilization             0.0                       # Layer utilization (%)
system.tol2bus.respLayer3.occupancy       11202130458                       # Layer occupancy (ticks)
system.tol2bus.respLayer3.utilization             2.7                       # Layer utilization (%)
system.tol2bus.respLayer2.occupancy          71951462                       # Layer occupancy (ticks)
system.tol2bus.respLayer2.utilization             0.0                       # Layer utilization (%)

---------- End Simulation Statistics   ----------
