
---------- Begin Simulation Statistics ----------
final_tick                                  804760500                       # Number of ticks from beginning of simulation (restored from checkpoints and never reset)
host_inst_rate                                 194017                       # Simulator instruction rate (inst/s)
host_mem_usage                                 737348                       # Number of bytes of host memory used
host_op_rate                                   194229                       # Simulator op (including micro ops) rate (op/s)
host_seconds                                     2.47                       # Real time elapsed on the host
host_tick_rate                              325426875                       # Simulator tick rate (ticks/s)
sim_freq                                 1000000000000                       # Frequency of simulated ticks
sim_insts                                      479763                       # Number of instructions simulated
sim_ops                                        480311                       # Number of ops (including micro ops) simulated
sim_seconds                                  0.000805                       # Number of seconds simulated
sim_ticks                                   804760500                       # Number of ticks simulated
system.cpu0.branchPred.BTBCorrect                   0                       # Number of correct BTB predictions (this stat may not work properly.
system.cpu0.branchPred.BTBHitPct            70.310264                       # BTB Hit Percentage
system.cpu0.branchPred.BTBHits                  56019                       # Number of BTB hits
system.cpu0.branchPred.BTBLookups               79674                       # Number of BTB lookups
system.cpu0.branchPred.RASInCorrect                 0                       # Number of incorrect RAS predictions.
system.cpu0.branchPred.condIncorrect             9640                       # Number of conditional branches incorrect
system.cpu0.branchPred.condPredicted            86609                       # Number of conditional branches predicted
system.cpu0.branchPred.indirectHits              9766                       # Number of indirect target hits.
system.cpu0.branchPred.indirectLookups          13114                       # Number of indirect predictor lookups.
system.cpu0.branchPred.indirectMisses            3348                       # Number of indirect misses.
system.cpu0.branchPred.lookups                 118713                       # Number of BP lookups
system.cpu0.branchPred.usedRAS                      0                       # Number of times the RAS was used to get a target.
system.cpu0.branchPredindirectMispredicted         2825                       # Number of mispredicted indirect branches.
system.cpu0.commit.amos                           205                       # Number of atomic instructions committed
system.cpu0.commit.branchMispredicts             6564                       # The number of times a branch was mispredicted
system.cpu0.commit.branches                    103838                       # Number of branches committed
system.cpu0.commit.bw_lim_events                15976                       # number cycles where commit BW limit reached
system.cpu0.commit.commitNonSpecStalls           1014                       # The number of times commit has been forced to stall to communicate backwards
system.cpu0.commit.commitSquashedInsts          33374                       # The number of squashed insts skipped by commit
system.cpu0.commit.committedInsts              456987                       # Number of instructions committed
system.cpu0.commit.committedOps                457168                       # Number of ops (including micro ops) committed
system.cpu0.commit.committed_per_cycle::samples       875711                       # Number of insts commited each cycle
system.cpu0.commit.committed_per_cycle::mean     0.522054                       # Number of insts commited each cycle
system.cpu0.commit.committed_per_cycle::stdev     1.351803                       # Number of insts commited each cycle
system.cpu0.commit.committed_per_cycle::underflows            0      0.00%      0.00% # Number of insts commited each cycle
system.cpu0.commit.committed_per_cycle::0       658941     75.25%     75.25% # Number of insts commited each cycle
system.cpu0.commit.committed_per_cycle::1       136682     15.61%     90.85% # Number of insts commited each cycle
system.cpu0.commit.committed_per_cycle::2        28127      3.21%     94.07% # Number of insts commited each cycle
system.cpu0.commit.committed_per_cycle::3        21375      2.44%     96.51% # Number of insts commited each cycle
system.cpu0.commit.committed_per_cycle::4         6777      0.77%     97.28% # Number of insts commited each cycle
system.cpu0.commit.committed_per_cycle::5         3978      0.45%     97.74% # Number of insts commited each cycle
system.cpu0.commit.committed_per_cycle::6         1684      0.19%     97.93% # Number of insts commited each cycle
system.cpu0.commit.committed_per_cycle::7         2171      0.25%     98.18% # Number of insts commited each cycle
system.cpu0.commit.committed_per_cycle::8        15976      1.82%    100.00% # Number of insts commited each cycle
system.cpu0.commit.committed_per_cycle::overflows            0      0.00%    100.00% # Number of insts commited each cycle
system.cpu0.commit.committed_per_cycle::min_value            0                       # Number of insts commited each cycle
system.cpu0.commit.committed_per_cycle::max_value            8                       # Number of insts commited each cycle
system.cpu0.commit.committed_per_cycle::total       875711                       # Number of insts commited each cycle
system.cpu0.commit.fp_insts                        16                       # Number of committed floating point instructions.
system.cpu0.commit.function_calls               15349                       # Number of function calls committed.
system.cpu0.commit.int_insts                   445839                       # Number of committed integer instructions.
system.cpu0.commit.loads                       131008                       # Number of loads committed
system.cpu0.commit.membars                        485                       # Number of memory barriers committed
system.cpu0.commit.op_class_0::No_OpClass          485      0.11%      0.11% # Class of committed instruction
system.cpu0.commit.op_class_0::IntAlu          253787     55.51%     55.62% # Class of committed instruction
system.cpu0.commit.op_class_0::IntMult           1403      0.31%     55.93% # Class of committed instruction
system.cpu0.commit.op_class_0::IntDiv             810      0.18%     56.10% # Class of committed instruction
system.cpu0.commit.op_class_0::FloatAdd             0      0.00%     56.10% # Class of committed instruction
system.cpu0.commit.op_class_0::FloatCmp             0      0.00%     56.10% # Class of committed instruction
system.cpu0.commit.op_class_0::FloatCvt             0      0.00%     56.10% # Class of committed instruction
system.cpu0.commit.op_class_0::FloatMult            0      0.00%     56.10% # Class of committed instruction
system.cpu0.commit.op_class_0::FloatMultAcc            0      0.00%     56.10% # Class of committed instruction
system.cpu0.commit.op_class_0::FloatDiv             0      0.00%     56.10% # Class of committed instruction
system.cpu0.commit.op_class_0::FloatMisc            0      0.00%     56.10% # Class of committed instruction
system.cpu0.commit.op_class_0::FloatSqrt            0      0.00%     56.10% # Class of committed instruction
system.cpu0.commit.op_class_0::SimdAdd              0      0.00%     56.10% # Class of committed instruction
system.cpu0.commit.op_class_0::SimdAddAcc            0      0.00%     56.10% # Class of committed instruction
system.cpu0.commit.op_class_0::SimdAlu              0      0.00%     56.10% # Class of committed instruction
system.cpu0.commit.op_class_0::SimdCmp              0      0.00%     56.10% # Class of committed instruction
system.cpu0.commit.op_class_0::SimdCvt              0      0.00%     56.10% # Class of committed instruction
system.cpu0.commit.op_class_0::SimdMisc             0      0.00%     56.10% # Class of committed instruction
system.cpu0.commit.op_class_0::SimdMult             0      0.00%     56.10% # Class of committed instruction
system.cpu0.commit.op_class_0::SimdMultAcc            0      0.00%     56.10% # Class of committed instruction
system.cpu0.commit.op_class_0::SimdShift            0      0.00%     56.10% # Class of committed instruction
system.cpu0.commit.op_class_0::SimdShiftAcc            0      0.00%     56.10% # Class of committed instruction
system.cpu0.commit.op_class_0::SimdDiv              0      0.00%     56.10% # Class of committed instruction
system.cpu0.commit.op_class_0::SimdSqrt             0      0.00%     56.10% # Class of committed instruction
system.cpu0.commit.op_class_0::SimdFloatAdd            0      0.00%     56.10% # Class of committed instruction
system.cpu0.commit.op_class_0::SimdFloatAlu            0      0.00%     56.10% # Class of committed instruction
system.cpu0.commit.op_class_0::SimdFloatCmp            0      0.00%     56.10% # Class of committed instruction
system.cpu0.commit.op_class_0::SimdFloatCvt            0      0.00%     56.10% # Class of committed instruction
system.cpu0.commit.op_class_0::SimdFloatDiv            0      0.00%     56.10% # Class of committed instruction
system.cpu0.commit.op_class_0::SimdFloatMisc            0      0.00%     56.10% # Class of committed instruction
system.cpu0.commit.op_class_0::SimdFloatMult            0      0.00%     56.10% # Class of committed instruction
system.cpu0.commit.op_class_0::SimdFloatMultAcc            0      0.00%     56.10% # Class of committed instruction
system.cpu0.commit.op_class_0::SimdFloatSqrt            0      0.00%     56.10% # Class of committed instruction
system.cpu0.commit.op_class_0::SimdReduceAdd            0      0.00%     56.10% # Class of committed instruction
system.cpu0.commit.op_class_0::SimdReduceAlu            0      0.00%     56.10% # Class of committed instruction
system.cpu0.commit.op_class_0::SimdReduceCmp            0      0.00%     56.10% # Class of committed instruction
system.cpu0.commit.op_class_0::SimdFloatReduceAdd            0      0.00%     56.10% # Class of committed instruction
system.cpu0.commit.op_class_0::SimdFloatReduceCmp            0      0.00%     56.10% # Class of committed instruction
system.cpu0.commit.op_class_0::SimdAes              0      0.00%     56.10% # Class of committed instruction
system.cpu0.commit.op_class_0::SimdAesMix            0      0.00%     56.10% # Class of committed instruction
system.cpu0.commit.op_class_0::SimdSha1Hash            0      0.00%     56.10% # Class of committed instruction
system.cpu0.commit.op_class_0::SimdSha1Hash2            0      0.00%     56.10% # Class of committed instruction
system.cpu0.commit.op_class_0::SimdSha256Hash            0      0.00%     56.10% # Class of committed instruction
system.cpu0.commit.op_class_0::SimdSha256Hash2            0      0.00%     56.10% # Class of committed instruction
system.cpu0.commit.op_class_0::SimdShaSigma2            0      0.00%     56.10% # Class of committed instruction
system.cpu0.commit.op_class_0::SimdShaSigma3            0      0.00%     56.10% # Class of committed instruction
system.cpu0.commit.op_class_0::SimdPredAlu            0      0.00%     56.10% # Class of committed instruction
system.cpu0.commit.op_class_0::MemRead         131213     28.70%     84.80% # Class of committed instruction
system.cpu0.commit.op_class_0::MemWrite         69454     15.19%    100.00% # Class of committed instruction
system.cpu0.commit.op_class_0::FloatMemRead            0      0.00%    100.00% # Class of committed instruction
system.cpu0.commit.op_class_0::FloatMemWrite           16      0.00%    100.00% # Class of committed instruction
system.cpu0.commit.op_class_0::IprAccess            0      0.00%    100.00% # Class of committed instruction
system.cpu0.commit.op_class_0::InstPrefetch            0      0.00%    100.00% # Class of committed instruction
system.cpu0.commit.op_class_0::total           457168                       # Class of committed instruction
system.cpu0.commit.refs                        200683                       # Number of memory references committed
system.cpu0.commit.swp_count                        0                       # Number of s/w prefetches committed
system.cpu0.commit.vec_insts                        0                       # Number of committed Vector instructions.
system.cpu0.committedInsts                     456987                       # Number of Instructions Simulated
system.cpu0.committedOps                       457168                       # Number of Ops (including micro ops) Simulated
system.cpu0.cpi                              3.519413                       # CPI: Cycles Per Instruction
system.cpu0.cpi_total                        3.519413                       # CPI: Total CPI of All Threads
system.cpu0.decode.BlockedCycles                40800                       # Number of cycles decode is blocked
system.cpu0.decode.BranchMispred                 3168                       # Number of times decode detected a branch misprediction
system.cpu0.decode.BranchResolved               55505                       # Number of times decode resolved a branch
system.cpu0.decode.DecodedInsts                505925                       # Number of instructions handled by decode
system.cpu0.decode.IdleCycles                  489219                       # Number of cycles decode is idle
system.cpu0.decode.RunCycles                   347116                       # Number of cycles decode is running
system.cpu0.decode.SquashCycles                  6703                       # Number of cycles decode is squashing
system.cpu0.decode.SquashedInsts                 5482                       # Number of squashed instructions handled by decode
system.cpu0.decode.UnblockCycles                  936                       # Number of cycles decode is unblocking
system.cpu0.dtb.accesses                            0                       # DTB accesses
system.cpu0.dtb.hits                                0                       # DTB hits
system.cpu0.dtb.misses                              0                       # DTB misses
system.cpu0.dtb.read_accesses                       0                       # DTB read accesses
system.cpu0.dtb.read_hits                           0                       # DTB read hits
system.cpu0.dtb.read_misses                         0                       # DTB read misses
system.cpu0.dtb.write_accesses                      0                       # DTB write accesses
system.cpu0.dtb.write_hits                          0                       # DTB write hits
system.cpu0.dtb.write_misses                        0                       # DTB write misses
system.cpu0.fetch.Branches                     118713                       # Number of branches that fetch encountered
system.cpu0.fetch.CacheLines                    82338                       # Number of cache lines fetched
system.cpu0.fetch.Cycles                       377097                       # Number of cycles fetch has run and was not squashing or blocked
system.cpu0.fetch.IcacheSquashes                 4394                       # Number of outstanding Icache misses that were squashed
system.cpu0.fetch.IcacheWaitRetryStallCycles           64                       # Number of stall cycles due to full MSHR
system.cpu0.fetch.Insts                        521919                       # Number of instructions fetch has processed
system.cpu0.fetch.MiscStallCycles                   8                       # Number of cycles fetch has spent waiting on interrupts, or bad addresses, or out of MSHRs
system.cpu0.fetch.PendingTrapStallCycles            6                       # Number of stall cycles due to pending traps
system.cpu0.fetch.SquashCycles                  19560                       # Number of cycles fetch has spent squashing
system.cpu0.fetch.branchRate                 0.073812                       # Number of branch fetches per cycle
system.cpu0.fetch.icacheStallCycles            497819                       # Number of cycles fetch is stalled on an Icache miss
system.cpu0.fetch.predictedBranches             65785                       # Number of branches that fetch has predicted taken
system.cpu0.fetch.rate                       0.324511                       # Number of inst fetches per cycle
system.cpu0.fetch.rateDist::samples            884774                       # Number of instructions fetched each cycle (Total)
system.cpu0.fetch.rateDist::mean             0.590230                       # Number of instructions fetched each cycle (Total)
system.cpu0.fetch.rateDist::stdev            0.953741                       # Number of instructions fetched each cycle (Total)
system.cpu0.fetch.rateDist::underflows              0      0.00%      0.00% # Number of instructions fetched each cycle (Total)
system.cpu0.fetch.rateDist::0                  524222     59.25%     59.25% # Number of instructions fetched each cycle (Total)
system.cpu0.fetch.rateDist::1                  270982     30.63%     89.88% # Number of instructions fetched each cycle (Total)
system.cpu0.fetch.rateDist::2                   48536      5.49%     95.36% # Number of instructions fetched each cycle (Total)
system.cpu0.fetch.rateDist::3                   25374      2.87%     98.23% # Number of instructions fetched each cycle (Total)
system.cpu0.fetch.rateDist::4                    8924      1.01%     99.24% # Number of instructions fetched each cycle (Total)
system.cpu0.fetch.rateDist::5                    2844      0.32%     99.56% # Number of instructions fetched each cycle (Total)
system.cpu0.fetch.rateDist::6                     847      0.10%     99.66% # Number of instructions fetched each cycle (Total)
system.cpu0.fetch.rateDist::7                    1314      0.15%     99.80% # Number of instructions fetched each cycle (Total)
system.cpu0.fetch.rateDist::8                    1731      0.20%    100.00% # Number of instructions fetched each cycle (Total)
system.cpu0.fetch.rateDist::overflows               0      0.00%    100.00% # Number of instructions fetched each cycle (Total)
system.cpu0.fetch.rateDist::min_value               0                       # Number of instructions fetched each cycle (Total)
system.cpu0.fetch.rateDist::max_value               8                       # Number of instructions fetched each cycle (Total)
system.cpu0.fetch.rateDist::total              884774                       # Number of instructions fetched each cycle (Total)
system.cpu0.fp_regfile_reads                       16                       # number of floating regfile reads
system.cpu0.idleCycles                         723552                       # Total number of cycles that the CPU has spent unscheduled due to idling
system.cpu0.iew.branchMispredicts                6781                       # Number of branch mispredicts detected at execute
system.cpu0.iew.exec_branches                  108335                       # Number of branches executed
system.cpu0.iew.exec_nop                            0                       # number of nop insts executed
system.cpu0.iew.exec_rate                    0.299644                       # Inst execution rate
system.cpu0.iew.exec_refs                      210083                       # number of memory reference insts executed
system.cpu0.iew.exec_stores                     71684                       # Number of stores executed
system.cpu0.iew.exec_swp                            0                       # number of swp insts executed
system.cpu0.iew.iewBlockCycles                   5260                       # Number of cycles IEW is blocking
system.cpu0.iew.iewDispLoadInsts               137749                       # Number of dispatched load instructions
system.cpu0.iew.iewDispNonSpecInsts               626                       # Number of dispatched non-speculative instructions
system.cpu0.iew.iewDispSquashedInsts             3875                       # Number of squashed instructions skipped by dispatch
system.cpu0.iew.iewDispStoreInsts               73066                       # Number of dispatched store instructions
system.cpu0.iew.iewDispatchedInsts             490526                       # Number of instructions dispatched to IQ
system.cpu0.iew.iewExecLoadInsts               138399                       # Number of load instructions executed
system.cpu0.iew.iewExecSquashedInsts             5193                       # Number of squashed instructions skipped in execute
system.cpu0.iew.iewExecutedInsts               481926                       # Number of executed instructions
system.cpu0.iew.iewIQFullEvents                    11                       # Number of times the IQ has become full, causing a stall
system.cpu0.iew.iewIdleCycles                       0                       # Number of cycles IEW is idle
system.cpu0.iew.iewLSQFullEvents                 3220                       # Number of times the LSQ has become full, causing a stall
system.cpu0.iew.iewSquashCycles                  6703                       # Number of cycles IEW is squashing
system.cpu0.iew.iewUnblockCycles                 3252                       # Number of cycles IEW is unblocking
system.cpu0.iew.lsq.thread0.blockedLoads            0                       # Number of blocked loads due to partial load-store forwarding
system.cpu0.iew.lsq.thread0.cacheBlocked          364                       # Number of times an access to memory failed due to the cache being blocked
system.cpu0.iew.lsq.thread0.forwLoads            7505                       # Number of loads that had data forwarded from stores
system.cpu0.iew.lsq.thread0.ignoredResponses           43                       # Number of memory responses ignored because the instruction is squashed
system.cpu0.iew.lsq.thread0.invAddrLoads            0                       # Number of loads ignored due to an invalid address
system.cpu0.iew.lsq.thread0.invAddrSwpfs            0                       # Number of software prefetches ignored due to an invalid address
system.cpu0.iew.lsq.thread0.memOrderViolation           56                       # Number of memory ordering violations
system.cpu0.iew.lsq.thread0.rescheduledLoads         1604                       # Number of loads that were rescheduled
system.cpu0.iew.lsq.thread0.squashedLoads         6738                       # Number of loads squashed
system.cpu0.iew.lsq.thread0.squashedStores         3391                       # Number of stores squashed
system.cpu0.iew.memOrderViolationEvents            56                       # Number of memory order violations
system.cpu0.iew.predictedNotTakenIncorrect         3351                       # Number of branches that were predicted not taken incorrectly
system.cpu0.iew.predictedTakenIncorrect          3430                       # Number of branches that were predicted taken incorrectly
system.cpu0.iew.wb_consumers                   193738                       # num instructions consuming a value
system.cpu0.iew.wb_count                       476962                       # cumulative count of insts written-back
system.cpu0.iew.wb_fanout                    0.847402                       # average fanout of values written-back
system.cpu0.iew.wb_producers                   164174                       # num instructions producing a value
system.cpu0.iew.wb_rate                      0.296558                       # insts written-back per cycle
system.cpu0.iew.wb_sent                        477295                       # cumulative count of insts sent to commit
system.cpu0.int_regfile_reads                  580111                       # number of integer regfile reads
system.cpu0.int_regfile_writes                 305434                       # number of integer regfile writes
system.cpu0.ipc                              0.284138                       # IPC: Instructions Per Cycle
system.cpu0.ipc_total                        0.284138                       # IPC: Total IPC of All Threads
system.cpu0.iq.FU_type_0::No_OpClass              577      0.12%      0.12% # Type of FU issued
system.cpu0.iq.FU_type_0::IntAlu               272490     55.94%     56.06% # Type of FU issued
system.cpu0.iq.FU_type_0::IntMult                1442      0.30%     56.35% # Type of FU issued
system.cpu0.iq.FU_type_0::IntDiv                  815      0.17%     56.52% # Type of FU issued
system.cpu0.iq.FU_type_0::FloatAdd                  0      0.00%     56.52% # Type of FU issued
system.cpu0.iq.FU_type_0::FloatCmp                  0      0.00%     56.52% # Type of FU issued
system.cpu0.iq.FU_type_0::FloatCvt                  0      0.00%     56.52% # Type of FU issued
system.cpu0.iq.FU_type_0::FloatMult                 0      0.00%     56.52% # Type of FU issued
system.cpu0.iq.FU_type_0::FloatMultAcc              0      0.00%     56.52% # Type of FU issued
system.cpu0.iq.FU_type_0::FloatDiv                  0      0.00%     56.52% # Type of FU issued
system.cpu0.iq.FU_type_0::FloatMisc                 0      0.00%     56.52% # Type of FU issued
system.cpu0.iq.FU_type_0::FloatSqrt                 0      0.00%     56.52% # Type of FU issued
system.cpu0.iq.FU_type_0::SimdAdd                   0      0.00%     56.52% # Type of FU issued
system.cpu0.iq.FU_type_0::SimdAddAcc                0      0.00%     56.52% # Type of FU issued
system.cpu0.iq.FU_type_0::SimdAlu                   0      0.00%     56.52% # Type of FU issued
system.cpu0.iq.FU_type_0::SimdCmp                   0      0.00%     56.52% # Type of FU issued
system.cpu0.iq.FU_type_0::SimdCvt                   0      0.00%     56.52% # Type of FU issued
system.cpu0.iq.FU_type_0::SimdMisc                  0      0.00%     56.52% # Type of FU issued
system.cpu0.iq.FU_type_0::SimdMult                  0      0.00%     56.52% # Type of FU issued
system.cpu0.iq.FU_type_0::SimdMultAcc               0      0.00%     56.52% # Type of FU issued
system.cpu0.iq.FU_type_0::SimdShift                 0      0.00%     56.52% # Type of FU issued
system.cpu0.iq.FU_type_0::SimdShiftAcc              0      0.00%     56.52% # Type of FU issued
system.cpu0.iq.FU_type_0::SimdDiv                   0      0.00%     56.52% # Type of FU issued
system.cpu0.iq.FU_type_0::SimdSqrt                  0      0.00%     56.52% # Type of FU issued
system.cpu0.iq.FU_type_0::SimdFloatAdd              0      0.00%     56.52% # Type of FU issued
system.cpu0.iq.FU_type_0::SimdFloatAlu              0      0.00%     56.52% # Type of FU issued
system.cpu0.iq.FU_type_0::SimdFloatCmp              0      0.00%     56.52% # Type of FU issued
system.cpu0.iq.FU_type_0::SimdFloatCvt              0      0.00%     56.52% # Type of FU issued
system.cpu0.iq.FU_type_0::SimdFloatDiv              0      0.00%     56.52% # Type of FU issued
system.cpu0.iq.FU_type_0::SimdFloatMisc             0      0.00%     56.52% # Type of FU issued
system.cpu0.iq.FU_type_0::SimdFloatMult             0      0.00%     56.52% # Type of FU issued
system.cpu0.iq.FU_type_0::SimdFloatMultAcc            0      0.00%     56.52% # Type of FU issued
system.cpu0.iq.FU_type_0::SimdFloatSqrt             0      0.00%     56.52% # Type of FU issued
system.cpu0.iq.FU_type_0::SimdReduceAdd             0      0.00%     56.52% # Type of FU issued
system.cpu0.iq.FU_type_0::SimdReduceAlu             0      0.00%     56.52% # Type of FU issued
system.cpu0.iq.FU_type_0::SimdReduceCmp             0      0.00%     56.52% # Type of FU issued
system.cpu0.iq.FU_type_0::SimdFloatReduceAdd            0      0.00%     56.52% # Type of FU issued
system.cpu0.iq.FU_type_0::SimdFloatReduceCmp            0      0.00%     56.52% # Type of FU issued
system.cpu0.iq.FU_type_0::SimdAes                   0      0.00%     56.52% # Type of FU issued
system.cpu0.iq.FU_type_0::SimdAesMix                0      0.00%     56.52% # Type of FU issued
system.cpu0.iq.FU_type_0::SimdSha1Hash              0      0.00%     56.52% # Type of FU issued
system.cpu0.iq.FU_type_0::SimdSha1Hash2             0      0.00%     56.52% # Type of FU issued
system.cpu0.iq.FU_type_0::SimdSha256Hash            0      0.00%     56.52% # Type of FU issued
system.cpu0.iq.FU_type_0::SimdSha256Hash2            0      0.00%     56.52% # Type of FU issued
system.cpu0.iq.FU_type_0::SimdShaSigma2             0      0.00%     56.52% # Type of FU issued
system.cpu0.iq.FU_type_0::SimdShaSigma3             0      0.00%     56.52% # Type of FU issued
system.cpu0.iq.FU_type_0::SimdPredAlu               0      0.00%     56.52% # Type of FU issued
system.cpu0.iq.FU_type_0::MemRead              139891     28.72%     85.24% # Type of FU issued
system.cpu0.iq.FU_type_0::MemWrite              71890     14.76%    100.00% # Type of FU issued
system.cpu0.iq.FU_type_0::FloatMemRead              0      0.00%    100.00% # Type of FU issued
system.cpu0.iq.FU_type_0::FloatMemWrite            16      0.00%    100.00% # Type of FU issued
system.cpu0.iq.FU_type_0::IprAccess                 0      0.00%    100.00% # Type of FU issued
system.cpu0.iq.FU_type_0::InstPrefetch              0      0.00%    100.00% # Type of FU issued
system.cpu0.iq.FU_type_0::total                487121                       # Type of FU issued
system.cpu0.iq.fp_alu_accesses                     18                       # Number of floating point alu accesses
system.cpu0.iq.fp_inst_queue_reads                 34                       # Number of floating instruction queue reads
system.cpu0.iq.fp_inst_queue_wakeup_accesses           16                       # Number of floating instruction queue wakeup accesses
system.cpu0.iq.fp_inst_queue_writes                16                       # Number of floating instruction queue writes
system.cpu0.iq.fu_busy_cnt                       1448                       # FU busy when requested
system.cpu0.iq.fu_busy_rate                  0.002973                       # FU busy rate (busy events/executed inst)
system.cpu0.iq.fu_full::No_OpClass                  0      0.00%      0.00% # attempts to use FU when none available
system.cpu0.iq.fu_full::IntAlu                    140      9.67%      9.67% # attempts to use FU when none available
system.cpu0.iq.fu_full::IntMult                     0      0.00%      9.67% # attempts to use FU when none available
system.cpu0.iq.fu_full::IntDiv                      0      0.00%      9.67% # attempts to use FU when none available
system.cpu0.iq.fu_full::FloatAdd                    0      0.00%      9.67% # attempts to use FU when none available
system.cpu0.iq.fu_full::FloatCmp                    0      0.00%      9.67% # attempts to use FU when none available
system.cpu0.iq.fu_full::FloatCvt                    0      0.00%      9.67% # attempts to use FU when none available
system.cpu0.iq.fu_full::FloatMult                   0      0.00%      9.67% # attempts to use FU when none available
system.cpu0.iq.fu_full::FloatMultAcc                0      0.00%      9.67% # attempts to use FU when none available
system.cpu0.iq.fu_full::FloatDiv                    0      0.00%      9.67% # attempts to use FU when none available
system.cpu0.iq.fu_full::FloatMisc                   0      0.00%      9.67% # attempts to use FU when none available
system.cpu0.iq.fu_full::FloatSqrt                   0      0.00%      9.67% # attempts to use FU when none available
system.cpu0.iq.fu_full::SimdAdd                     0      0.00%      9.67% # attempts to use FU when none available
system.cpu0.iq.fu_full::SimdAddAcc                  0      0.00%      9.67% # attempts to use FU when none available
system.cpu0.iq.fu_full::SimdAlu                     0      0.00%      9.67% # attempts to use FU when none available
system.cpu0.iq.fu_full::SimdCmp                     0      0.00%      9.67% # attempts to use FU when none available
system.cpu0.iq.fu_full::SimdCvt                     0      0.00%      9.67% # attempts to use FU when none available
system.cpu0.iq.fu_full::SimdMisc                    0      0.00%      9.67% # attempts to use FU when none available
system.cpu0.iq.fu_full::SimdMult                    0      0.00%      9.67% # attempts to use FU when none available
system.cpu0.iq.fu_full::SimdMultAcc                 0      0.00%      9.67% # attempts to use FU when none available
system.cpu0.iq.fu_full::SimdShift                   0      0.00%      9.67% # attempts to use FU when none available
system.cpu0.iq.fu_full::SimdShiftAcc                0      0.00%      9.67% # attempts to use FU when none available
system.cpu0.iq.fu_full::SimdDiv                     0      0.00%      9.67% # attempts to use FU when none available
system.cpu0.iq.fu_full::SimdSqrt                    0      0.00%      9.67% # attempts to use FU when none available
system.cpu0.iq.fu_full::SimdFloatAdd                0      0.00%      9.67% # attempts to use FU when none available
system.cpu0.iq.fu_full::SimdFloatAlu                0      0.00%      9.67% # attempts to use FU when none available
system.cpu0.iq.fu_full::SimdFloatCmp                0      0.00%      9.67% # attempts to use FU when none available
system.cpu0.iq.fu_full::SimdFloatCvt                0      0.00%      9.67% # attempts to use FU when none available
system.cpu0.iq.fu_full::SimdFloatDiv                0      0.00%      9.67% # attempts to use FU when none available
system.cpu0.iq.fu_full::SimdFloatMisc               0      0.00%      9.67% # attempts to use FU when none available
system.cpu0.iq.fu_full::SimdFloatMult               0      0.00%      9.67% # attempts to use FU when none available
system.cpu0.iq.fu_full::SimdFloatMultAcc            0      0.00%      9.67% # attempts to use FU when none available
system.cpu0.iq.fu_full::SimdFloatSqrt               0      0.00%      9.67% # attempts to use FU when none available
system.cpu0.iq.fu_full::SimdReduceAdd               0      0.00%      9.67% # attempts to use FU when none available
system.cpu0.iq.fu_full::SimdReduceAlu               0      0.00%      9.67% # attempts to use FU when none available
system.cpu0.iq.fu_full::SimdReduceCmp               0      0.00%      9.67% # attempts to use FU when none available
system.cpu0.iq.fu_full::SimdFloatReduceAdd            0      0.00%      9.67% # attempts to use FU when none available
system.cpu0.iq.fu_full::SimdFloatReduceCmp            0      0.00%      9.67% # attempts to use FU when none available
system.cpu0.iq.fu_full::SimdAes                     0      0.00%      9.67% # attempts to use FU when none available
system.cpu0.iq.fu_full::SimdAesMix                  0      0.00%      9.67% # attempts to use FU when none available
system.cpu0.iq.fu_full::SimdSha1Hash                0      0.00%      9.67% # attempts to use FU when none available
system.cpu0.iq.fu_full::SimdSha1Hash2               0      0.00%      9.67% # attempts to use FU when none available
system.cpu0.iq.fu_full::SimdSha256Hash              0      0.00%      9.67% # attempts to use FU when none available
system.cpu0.iq.fu_full::SimdSha256Hash2             0      0.00%      9.67% # attempts to use FU when none available
system.cpu0.iq.fu_full::SimdShaSigma2               0      0.00%      9.67% # attempts to use FU when none available
system.cpu0.iq.fu_full::SimdShaSigma3               0      0.00%      9.67% # attempts to use FU when none available
system.cpu0.iq.fu_full::SimdPredAlu                 0      0.00%      9.67% # attempts to use FU when none available
system.cpu0.iq.fu_full::MemRead                   591     40.81%     50.48% # attempts to use FU when none available
system.cpu0.iq.fu_full::MemWrite                  715     49.38%     99.86% # attempts to use FU when none available
system.cpu0.iq.fu_full::FloatMemRead                0      0.00%     99.86% # attempts to use FU when none available
system.cpu0.iq.fu_full::FloatMemWrite               2      0.14%    100.00% # attempts to use FU when none available
system.cpu0.iq.fu_full::IprAccess                   0      0.00%    100.00% # attempts to use FU when none available
system.cpu0.iq.fu_full::InstPrefetch                0      0.00%    100.00% # attempts to use FU when none available
system.cpu0.iq.int_alu_accesses                487974                       # Number of integer alu accesses
system.cpu0.iq.int_inst_queue_reads           1860815                       # Number of integer instruction queue reads
system.cpu0.iq.int_inst_queue_wakeup_accesses       476946                       # Number of integer instruction queue wakeup accesses
system.cpu0.iq.int_inst_queue_writes           523913                       # Number of integer instruction queue writes
system.cpu0.iq.iqInstsAdded                    489327                       # Number of instructions added to the IQ (excludes non-spec)
system.cpu0.iq.iqInstsIssued                   487121                       # Number of instructions issued
system.cpu0.iq.iqNonSpecInstsAdded               1199                       # Number of non-speculative instructions added to the IQ
system.cpu0.iq.iqSquashedInstsExamined          33348                       # Number of squashed instructions iterated over during squash; mainly for profiling
system.cpu0.iq.iqSquashedInstsIssued              387                       # Number of squashed instructions issued
system.cpu0.iq.iqSquashedNonSpecRemoved           185                       # Number of squashed non-spec instructions that were removed
system.cpu0.iq.iqSquashedOperandsExamined        13504                       # Number of squashed operands that are examined and possibly removed from graph
system.cpu0.iq.issued_per_cycle::samples       884774                       # Number of insts issued each cycle
system.cpu0.iq.issued_per_cycle::mean        0.550560                       # Number of insts issued each cycle
system.cpu0.iq.issued_per_cycle::stdev       0.843072                       # Number of insts issued each cycle
system.cpu0.iq.issued_per_cycle::underflows            0      0.00%      0.00% # Number of insts issued each cycle
system.cpu0.iq.issued_per_cycle::0             536247     60.61%     60.61% # Number of insts issued each cycle
system.cpu0.iq.issued_per_cycle::1             252838     28.58%     89.18% # Number of insts issued each cycle
system.cpu0.iq.issued_per_cycle::2              68029      7.69%     96.87% # Number of insts issued each cycle
system.cpu0.iq.issued_per_cycle::3              18202      2.06%     98.93% # Number of insts issued each cycle
system.cpu0.iq.issued_per_cycle::4               5579      0.63%     99.56% # Number of insts issued each cycle
system.cpu0.iq.issued_per_cycle::5               2411      0.27%     99.83% # Number of insts issued each cycle
system.cpu0.iq.issued_per_cycle::6               1118      0.13%     99.96% # Number of insts issued each cycle
system.cpu0.iq.issued_per_cycle::7                260      0.03%     99.99% # Number of insts issued each cycle
system.cpu0.iq.issued_per_cycle::8                 90      0.01%    100.00% # Number of insts issued each cycle
system.cpu0.iq.issued_per_cycle::overflows            0      0.00%    100.00% # Number of insts issued each cycle
system.cpu0.iq.issued_per_cycle::min_value            0                       # Number of insts issued each cycle
system.cpu0.iq.issued_per_cycle::max_value            8                       # Number of insts issued each cycle
system.cpu0.iq.issued_per_cycle::total         884774                       # Number of insts issued each cycle
system.cpu0.iq.rate                          0.302875                       # Inst issue rate
system.cpu0.iq.vec_alu_accesses                     0                       # Number of vector alu accesses
system.cpu0.iq.vec_inst_queue_reads                 0                       # Number of vector instruction queue reads
system.cpu0.iq.vec_inst_queue_wakeup_accesses            0                       # Number of vector instruction queue wakeup accesses
system.cpu0.iq.vec_inst_queue_writes                0                       # Number of vector instruction queue writes
system.cpu0.itb.accesses                            0                       # DTB accesses
system.cpu0.itb.hits                                0                       # DTB hits
system.cpu0.itb.misses                              0                       # DTB misses
system.cpu0.itb.read_accesses                       0                       # DTB read accesses
system.cpu0.itb.read_hits                           0                       # DTB read hits
system.cpu0.itb.read_misses                         0                       # DTB read misses
system.cpu0.itb.write_accesses                      0                       # DTB write accesses
system.cpu0.itb.write_hits                          0                       # DTB write hits
system.cpu0.itb.write_misses                        0                       # DTB write misses
system.cpu0.memDep0.conflictingLoads             3152                       # Number of conflicting loads.
system.cpu0.memDep0.conflictingStores            1446                       # Number of conflicting stores.
system.cpu0.memDep0.insertedLoads              137749                       # Number of loads inserted to the mem dependence unit.
system.cpu0.memDep0.insertedStores              73066                       # Number of stores inserted to the mem dependence unit.
system.cpu0.misc_regfile_reads                     91                       # number of misc regfile reads
system.cpu0.numCycles                         1608326                       # number of cpu cycles simulated
system.cpu0.numWorkItemsCompleted                   0                       # number of work items this cpu completed
system.cpu0.numWorkItemsStarted                     0                       # number of work items this cpu started
system.cpu0.quiesceCycles                        1196                       # Total number of cycles that CPU has spent quiesced or waiting for an interrupt
system.cpu0.rename.BlockCycles                   8707                       # Number of cycles rename is blocking
system.cpu0.rename.CommittedMaps               290968                       # Number of HB maps that are committed
system.cpu0.rename.IQFullEvents                   120                       # Number of times rename has blocked due to IQ full
system.cpu0.rename.IdleCycles                  495784                       # Number of cycles rename is idle
system.cpu0.rename.LQFullEvents                  5468                       # Number of times rename has blocked due to LQ full
system.cpu0.rename.ROBFullEvents                    6                       # Number of times rename has blocked due to ROB full
system.cpu0.rename.RenameLookups               601802                       # Number of register rename lookups that rename has made
system.cpu0.rename.RenamedInsts                499735                       # Number of instructions processed by rename
system.cpu0.rename.RenamedOperands             321008                       # Number of destination operands rename has renamed
system.cpu0.rename.RunCycles                   341384                       # Number of cycles rename is running
system.cpu0.rename.SQFullEvents                  6548                       # Number of times rename has blocked due to SQ full
system.cpu0.rename.SquashCycles                  6703                       # Number of cycles rename is squashing
system.cpu0.rename.UnblockCycles                12462                       # Number of cycles rename is unblocking
system.cpu0.rename.UndoneMaps                   30030                       # Number of HB maps that are undone due to squashing
system.cpu0.rename.fp_rename_lookups               16                       # Number of floating rename lookups
system.cpu0.rename.int_rename_lookups          601786                       # Number of integer rename lookups
system.cpu0.rename.serializeStallCycles         19734                       # count of cycles rename stalled for serializing inst
system.cpu0.rename.serializingInsts               423                       # count of serializing insts renamed
system.cpu0.rename.skidInsts                     3109                       # count of insts added to the skid buffer
system.cpu0.rename.tempSerializingInsts           423                       # count of temporary serializing insts renamed
system.cpu0.rob.rob_reads                     1349081                       # The number of ROB reads
system.cpu0.rob.rob_writes                     990166                       # The number of ROB writes
system.cpu0.timesIdled                          18544                       # Number of times that the entire CPU went into an idle state and unscheduled itself
system.cpu0.workload.numSyscalls                   91                       # Number of system calls
system.cpu1.branchPred.BTBCorrect                   0                       # Number of correct BTB predictions (this stat may not work properly.
system.cpu1.branchPred.BTBHitPct            44.343891                       # BTB Hit Percentage
system.cpu1.branchPred.BTBHits                   1078                       # Number of BTB hits
system.cpu1.branchPred.BTBLookups                2431                       # Number of BTB lookups
system.cpu1.branchPred.RASInCorrect                 0                       # Number of incorrect RAS predictions.
system.cpu1.branchPred.condIncorrect              335                       # Number of conditional branches incorrect
system.cpu1.branchPred.condPredicted             1697                       # Number of conditional branches predicted
system.cpu1.branchPred.indirectHits               326                       # Number of indirect target hits.
system.cpu1.branchPred.indirectLookups            471                       # Number of indirect predictor lookups.
system.cpu1.branchPred.indirectMisses             145                       # Number of indirect misses.
system.cpu1.branchPred.lookups                   2872                       # Number of BP lookups
system.cpu1.branchPred.usedRAS                      0                       # Number of times the RAS was used to get a target.
system.cpu1.branchPredindirectMispredicted           92                       # Number of mispredicted indirect branches.
system.cpu1.commit.amos                            97                       # Number of atomic instructions committed
system.cpu1.commit.branchMispredicts              258                       # The number of times a branch was mispredicted
system.cpu1.commit.branches                      1812                       # Number of branches committed
system.cpu1.commit.bw_lim_events                  109                       # number cycles where commit BW limit reached
system.cpu1.commit.commitNonSpecStalls            429                       # The number of times commit has been forced to stall to communicate backwards
system.cpu1.commit.commitSquashedInsts           1436                       # The number of squashed insts skipped by commit
system.cpu1.commit.committedInsts                7840                       # Number of instructions committed
system.cpu1.commit.committedOps                  7975                       # Number of ops (including micro ops) committed
system.cpu1.commit.committed_per_cycle::samples        22080                       # Number of insts commited each cycle
system.cpu1.commit.committed_per_cycle::mean     0.361187                       # Number of insts commited each cycle
system.cpu1.commit.committed_per_cycle::stdev     1.061293                       # Number of insts commited each cycle
system.cpu1.commit.committed_per_cycle::underflows            0      0.00%      0.00% # Number of insts commited each cycle
system.cpu1.commit.committed_per_cycle::0        18067     81.83%     81.83% # Number of insts commited each cycle
system.cpu1.commit.committed_per_cycle::1         2481     11.24%     93.06% # Number of insts commited each cycle
system.cpu1.commit.committed_per_cycle::2          643      2.91%     95.97% # Number of insts commited each cycle
system.cpu1.commit.committed_per_cycle::3          338      1.53%     97.50% # Number of insts commited each cycle
system.cpu1.commit.committed_per_cycle::4          138      0.62%     98.13% # Number of insts commited each cycle
system.cpu1.commit.committed_per_cycle::5          114      0.52%     98.65% # Number of insts commited each cycle
system.cpu1.commit.committed_per_cycle::6          130      0.59%     99.23% # Number of insts commited each cycle
system.cpu1.commit.committed_per_cycle::7           60      0.27%     99.51% # Number of insts commited each cycle
system.cpu1.commit.committed_per_cycle::8          109      0.49%    100.00% # Number of insts commited each cycle
system.cpu1.commit.committed_per_cycle::overflows            0      0.00%    100.00% # Number of insts commited each cycle
system.cpu1.commit.committed_per_cycle::min_value            0                       # Number of insts commited each cycle
system.cpu1.commit.committed_per_cycle::max_value            8                       # Number of insts commited each cycle
system.cpu1.commit.committed_per_cycle::total        22080                       # Number of insts commited each cycle
system.cpu1.commit.fp_insts                        12                       # Number of committed floating point instructions.
system.cpu1.commit.function_calls                 570                       # Number of function calls committed.
system.cpu1.commit.int_insts                     7616                       # Number of committed integer instructions.
system.cpu1.commit.loads                         1497                       # Number of loads committed
system.cpu1.commit.membars                        186                       # Number of memory barriers committed
system.cpu1.commit.op_class_0::No_OpClass          186      2.33%      2.33% # Class of committed instruction
system.cpu1.commit.op_class_0::IntAlu            4986     62.52%     64.85% # Class of committed instruction
system.cpu1.commit.op_class_0::IntMult              9      0.11%     64.97% # Class of committed instruction
system.cpu1.commit.op_class_0::IntDiv              18      0.23%     65.19% # Class of committed instruction
system.cpu1.commit.op_class_0::FloatAdd             0      0.00%     65.19% # Class of committed instruction
system.cpu1.commit.op_class_0::FloatCmp             0      0.00%     65.19% # Class of committed instruction
system.cpu1.commit.op_class_0::FloatCvt             0      0.00%     65.19% # Class of committed instruction
system.cpu1.commit.op_class_0::FloatMult            0      0.00%     65.19% # Class of committed instruction
system.cpu1.commit.op_class_0::FloatMultAcc            0      0.00%     65.19% # Class of committed instruction
system.cpu1.commit.op_class_0::FloatDiv             0      0.00%     65.19% # Class of committed instruction
system.cpu1.commit.op_class_0::FloatMisc            0      0.00%     65.19% # Class of committed instruction
system.cpu1.commit.op_class_0::FloatSqrt            0      0.00%     65.19% # Class of committed instruction
system.cpu1.commit.op_class_0::SimdAdd              0      0.00%     65.19% # Class of committed instruction
system.cpu1.commit.op_class_0::SimdAddAcc            0      0.00%     65.19% # Class of committed instruction
system.cpu1.commit.op_class_0::SimdAlu              0      0.00%     65.19% # Class of committed instruction
system.cpu1.commit.op_class_0::SimdCmp              0      0.00%     65.19% # Class of committed instruction
system.cpu1.commit.op_class_0::SimdCvt              0      0.00%     65.19% # Class of committed instruction
system.cpu1.commit.op_class_0::SimdMisc             0      0.00%     65.19% # Class of committed instruction
system.cpu1.commit.op_class_0::SimdMult             0      0.00%     65.19% # Class of committed instruction
system.cpu1.commit.op_class_0::SimdMultAcc            0      0.00%     65.19% # Class of committed instruction
system.cpu1.commit.op_class_0::SimdShift            0      0.00%     65.19% # Class of committed instruction
system.cpu1.commit.op_class_0::SimdShiftAcc            0      0.00%     65.19% # Class of committed instruction
system.cpu1.commit.op_class_0::SimdDiv              0      0.00%     65.19% # Class of committed instruction
system.cpu1.commit.op_class_0::SimdSqrt             0      0.00%     65.19% # Class of committed instruction
system.cpu1.commit.op_class_0::SimdFloatAdd            0      0.00%     65.19% # Class of committed instruction
system.cpu1.commit.op_class_0::SimdFloatAlu            0      0.00%     65.19% # Class of committed instruction
system.cpu1.commit.op_class_0::SimdFloatCmp            0      0.00%     65.19% # Class of committed instruction
system.cpu1.commit.op_class_0::SimdFloatCvt            0      0.00%     65.19% # Class of committed instruction
system.cpu1.commit.op_class_0::SimdFloatDiv            0      0.00%     65.19% # Class of committed instruction
system.cpu1.commit.op_class_0::SimdFloatMisc            0      0.00%     65.19% # Class of committed instruction
system.cpu1.commit.op_class_0::SimdFloatMult            0      0.00%     65.19% # Class of committed instruction
system.cpu1.commit.op_class_0::SimdFloatMultAcc            0      0.00%     65.19% # Class of committed instruction
system.cpu1.commit.op_class_0::SimdFloatSqrt            0      0.00%     65.19% # Class of committed instruction
system.cpu1.commit.op_class_0::SimdReduceAdd            0      0.00%     65.19% # Class of committed instruction
system.cpu1.commit.op_class_0::SimdReduceAlu            0      0.00%     65.19% # Class of committed instruction
system.cpu1.commit.op_class_0::SimdReduceCmp            0      0.00%     65.19% # Class of committed instruction
system.cpu1.commit.op_class_0::SimdFloatReduceAdd            0      0.00%     65.19% # Class of committed instruction
system.cpu1.commit.op_class_0::SimdFloatReduceCmp            0      0.00%     65.19% # Class of committed instruction
system.cpu1.commit.op_class_0::SimdAes              0      0.00%     65.19% # Class of committed instruction
system.cpu1.commit.op_class_0::SimdAesMix            0      0.00%     65.19% # Class of committed instruction
system.cpu1.commit.op_class_0::SimdSha1Hash            0      0.00%     65.19% # Class of committed instruction
system.cpu1.commit.op_class_0::SimdSha1Hash2            0      0.00%     65.19% # Class of committed instruction
system.cpu1.commit.op_class_0::SimdSha256Hash            0      0.00%     65.19% # Class of committed instruction
system.cpu1.commit.op_class_0::SimdSha256Hash2            0      0.00%     65.19% # Class of committed instruction
system.cpu1.commit.op_class_0::SimdShaSigma2            0      0.00%     65.19% # Class of committed instruction
system.cpu1.commit.op_class_0::SimdShaSigma3            0      0.00%     65.19% # Class of committed instruction
system.cpu1.commit.op_class_0::SimdPredAlu            0      0.00%     65.19% # Class of committed instruction
system.cpu1.commit.op_class_0::MemRead           1594     19.99%     85.18% # Class of committed instruction
system.cpu1.commit.op_class_0::MemWrite          1170     14.67%     99.85% # Class of committed instruction
system.cpu1.commit.op_class_0::FloatMemRead            0      0.00%     99.85% # Class of committed instruction
system.cpu1.commit.op_class_0::FloatMemWrite           12      0.15%    100.00% # Class of committed instruction
system.cpu1.commit.op_class_0::IprAccess            0      0.00%    100.00% # Class of committed instruction
system.cpu1.commit.op_class_0::InstPrefetch            0      0.00%    100.00% # Class of committed instruction
system.cpu1.commit.op_class_0::total             7975                       # Class of committed instruction
system.cpu1.commit.refs                          2776                       # Number of memory references committed
system.cpu1.commit.swp_count                        0                       # Number of s/w prefetches committed
system.cpu1.commit.vec_insts                        0                       # Number of committed Vector instructions.
system.cpu1.committedInsts                       7840                       # Number of Instructions Simulated
system.cpu1.committedOps                         7975                       # Number of Ops (including micro ops) Simulated
system.cpu1.cpi                              4.991582                       # CPI: Cycles Per Instruction
system.cpu1.cpi_total                        4.991582                       # CPI: Total CPI of All Threads
system.cpu1.decode.BlockedCycles                 5489                       # Number of cycles decode is blocked
system.cpu1.decode.BranchMispred                   77                       # Number of times decode detected a branch misprediction
system.cpu1.decode.BranchResolved                 918                       # Number of times decode resolved a branch
system.cpu1.decode.DecodedInsts                 10318                       # Number of instructions handled by decode
system.cpu1.decode.IdleCycles                   10063                       # Number of cycles decode is idle
system.cpu1.decode.RunCycles                     6509                       # Number of cycles decode is running
system.cpu1.decode.SquashCycles                   322                       # Number of cycles decode is squashing
system.cpu1.decode.SquashedInsts                  126                       # Number of squashed instructions handled by decode
system.cpu1.decode.UnblockCycles                   96                       # Number of cycles decode is unblocking
system.cpu1.dtb.accesses                            0                       # DTB accesses
system.cpu1.dtb.hits                                0                       # DTB hits
system.cpu1.dtb.misses                              0                       # DTB misses
system.cpu1.dtb.read_accesses                       0                       # DTB read accesses
system.cpu1.dtb.read_hits                           0                       # DTB read hits
system.cpu1.dtb.read_misses                         0                       # DTB read misses
system.cpu1.dtb.write_accesses                      0                       # DTB write accesses
system.cpu1.dtb.write_hits                          0                       # DTB write hits
system.cpu1.dtb.write_misses                        0                       # DTB write misses
system.cpu1.fetch.Branches                       2872                       # Number of branches that fetch encountered
system.cpu1.fetch.CacheLines                     1902                       # Number of cache lines fetched
system.cpu1.fetch.Cycles                        10317                       # Number of cycles fetch has run and was not squashing or blocked
system.cpu1.fetch.IcacheSquashes                  152                       # Number of outstanding Icache misses that were squashed
system.cpu1.fetch.Insts                         12196                       # Number of instructions fetch has processed
system.cpu1.fetch.MiscStallCycles                   1                       # Number of cycles fetch has spent waiting on interrupts, or bad addresses, or out of MSHRs
system.cpu1.fetch.SquashCycles                    798                       # Number of cycles fetch has spent squashing
system.cpu1.fetch.branchRate                 0.073389                       # Number of branch fetches per cycle
system.cpu1.fetch.icacheStallCycles             11762                       # Number of cycles fetch is stalled on an Icache miss
system.cpu1.fetch.predictedBranches              1404                       # Number of branches that fetch has predicted taken
system.cpu1.fetch.rate                       0.311647                       # Number of inst fetches per cycle
system.cpu1.fetch.rateDist::samples             22479                       # Number of instructions fetched each cycle (Total)
system.cpu1.fetch.rateDist::mean             0.558121                       # Number of instructions fetched each cycle (Total)
system.cpu1.fetch.rateDist::stdev            0.922956                       # Number of instructions fetched each cycle (Total)
system.cpu1.fetch.rateDist::underflows              0      0.00%      0.00% # Number of instructions fetched each cycle (Total)
system.cpu1.fetch.rateDist::0                   13704     60.96%     60.96% # Number of instructions fetched each cycle (Total)
system.cpu1.fetch.rateDist::1                    6632     29.50%     90.47% # Number of instructions fetched each cycle (Total)
system.cpu1.fetch.rateDist::2                    1297      5.77%     96.24% # Number of instructions fetched each cycle (Total)
system.cpu1.fetch.rateDist::3                     423      1.88%     98.12% # Number of instructions fetched each cycle (Total)
system.cpu1.fetch.rateDist::4                     204      0.91%     99.03% # Number of instructions fetched each cycle (Total)
system.cpu1.fetch.rateDist::5                     161      0.72%     99.74% # Number of instructions fetched each cycle (Total)
system.cpu1.fetch.rateDist::6                      16      0.07%     99.81% # Number of instructions fetched each cycle (Total)
system.cpu1.fetch.rateDist::7                       2      0.01%     99.82% # Number of instructions fetched each cycle (Total)
system.cpu1.fetch.rateDist::8                      40      0.18%    100.00% # Number of instructions fetched each cycle (Total)
system.cpu1.fetch.rateDist::overflows               0      0.00%    100.00% # Number of instructions fetched each cycle (Total)
system.cpu1.fetch.rateDist::min_value               0                       # Number of instructions fetched each cycle (Total)
system.cpu1.fetch.rateDist::max_value               8                       # Number of instructions fetched each cycle (Total)
system.cpu1.fetch.rateDist::total               22479                       # Number of instructions fetched each cycle (Total)
system.cpu1.fp_regfile_reads                       12                       # number of floating regfile reads
system.cpu1.idleCycles                          16655                       # Total number of cycles that the CPU has spent unscheduled due to idling
system.cpu1.iew.branchMispredicts                 263                       # Number of branch mispredicts detected at execute
system.cpu1.iew.exec_branches                    1935                       # Number of branches executed
system.cpu1.iew.exec_nop                            0                       # number of nop insts executed
system.cpu1.iew.exec_rate                    0.225814                       # Inst execution rate
system.cpu1.iew.exec_refs                        3100                       # number of memory reference insts executed
system.cpu1.iew.exec_stores                      1364                       # Number of stores executed
system.cpu1.iew.exec_swp                            0                       # number of swp insts executed
system.cpu1.iew.iewBlockCycles                     77                       # Number of cycles IEW is blocking
system.cpu1.iew.iewDispLoadInsts                 1936                       # Number of dispatched load instructions
system.cpu1.iew.iewDispNonSpecInsts               300                       # Number of dispatched non-speculative instructions
system.cpu1.iew.iewDispSquashedInsts              172                       # Number of squashed instructions skipped by dispatch
system.cpu1.iew.iewDispStoreInsts                1474                       # Number of dispatched store instructions
system.cpu1.iew.iewDispatchedInsts               9412                       # Number of instructions dispatched to IQ
system.cpu1.iew.iewExecLoadInsts                 1736                       # Number of load instructions executed
system.cpu1.iew.iewExecSquashedInsts              169                       # Number of squashed instructions skipped in execute
system.cpu1.iew.iewExecutedInsts                 8837                       # Number of executed instructions
system.cpu1.iew.iewIQFullEvents                     0                       # Number of times the IQ has become full, causing a stall
system.cpu1.iew.iewIdleCycles                       0                       # Number of cycles IEW is idle
system.cpu1.iew.iewLSQFullEvents                    5                       # Number of times the LSQ has become full, causing a stall
system.cpu1.iew.iewSquashCycles                   322                       # Number of cycles IEW is squashing
system.cpu1.iew.iewUnblockCycles                    5                       # Number of cycles IEW is unblocking
system.cpu1.iew.lsq.thread0.blockedLoads            0                       # Number of blocked loads due to partial load-store forwarding
system.cpu1.iew.lsq.thread0.cacheBlocked            2                       # Number of times an access to memory failed due to the cache being blocked
system.cpu1.iew.lsq.thread0.forwLoads              55                       # Number of loads that had data forwarded from stores
system.cpu1.iew.lsq.thread0.ignoredResponses            3                       # Number of memory responses ignored because the instruction is squashed
system.cpu1.iew.lsq.thread0.invAddrLoads            0                       # Number of loads ignored due to an invalid address
system.cpu1.iew.lsq.thread0.invAddrSwpfs            0                       # Number of software prefetches ignored due to an invalid address
system.cpu1.iew.lsq.thread0.memOrderViolation            5                       # Number of memory ordering violations
system.cpu1.iew.lsq.thread0.rescheduledLoads            0                       # Number of loads that were rescheduled
system.cpu1.iew.lsq.thread0.squashedLoads          439                       # Number of loads squashed
system.cpu1.iew.lsq.thread0.squashedStores          195                       # Number of stores squashed
system.cpu1.iew.memOrderViolationEvents             5                       # Number of memory order violations
system.cpu1.iew.predictedNotTakenIncorrect          209                       # Number of branches that were predicted not taken incorrectly
system.cpu1.iew.predictedTakenIncorrect            54                       # Number of branches that were predicted taken incorrectly
system.cpu1.iew.wb_consumers                     3075                       # num instructions consuming a value
system.cpu1.iew.wb_count                         8659                       # cumulative count of insts written-back
system.cpu1.iew.wb_fanout                    0.779837                       # average fanout of values written-back
system.cpu1.iew.wb_producers                     2398                       # num instructions producing a value
system.cpu1.iew.wb_rate                      0.221265                       # insts written-back per cycle
system.cpu1.iew.wb_sent                          8719                       # cumulative count of insts sent to commit
system.cpu1.int_regfile_reads                   10316                       # number of integer regfile reads
system.cpu1.int_regfile_writes                   5849                       # number of integer regfile writes
system.cpu1.ipc                              0.200337                       # IPC: Instructions Per Cycle
system.cpu1.ipc_total                        0.200337                       # IPC: Total IPC of All Threads
system.cpu1.iq.FU_type_0::No_OpClass              245      2.72%      2.72% # Type of FU issued
system.cpu1.iq.FU_type_0::IntAlu                 5548     61.60%     64.32% # Type of FU issued
system.cpu1.iq.FU_type_0::IntMult                  10      0.11%     64.43% # Type of FU issued
system.cpu1.iq.FU_type_0::IntDiv                   18      0.20%     64.63% # Type of FU issued
system.cpu1.iq.FU_type_0::FloatAdd                  0      0.00%     64.63% # Type of FU issued
system.cpu1.iq.FU_type_0::FloatCmp                  0      0.00%     64.63% # Type of FU issued
system.cpu1.iq.FU_type_0::FloatCvt                  0      0.00%     64.63% # Type of FU issued
system.cpu1.iq.FU_type_0::FloatMult                 0      0.00%     64.63% # Type of FU issued
system.cpu1.iq.FU_type_0::FloatMultAcc              0      0.00%     64.63% # Type of FU issued
system.cpu1.iq.FU_type_0::FloatDiv                  0      0.00%     64.63% # Type of FU issued
system.cpu1.iq.FU_type_0::FloatMisc                 0      0.00%     64.63% # Type of FU issued
system.cpu1.iq.FU_type_0::FloatSqrt                 0      0.00%     64.63% # Type of FU issued
system.cpu1.iq.FU_type_0::SimdAdd                   0      0.00%     64.63% # Type of FU issued
system.cpu1.iq.FU_type_0::SimdAddAcc                0      0.00%     64.63% # Type of FU issued
system.cpu1.iq.FU_type_0::SimdAlu                   0      0.00%     64.63% # Type of FU issued
system.cpu1.iq.FU_type_0::SimdCmp                   0      0.00%     64.63% # Type of FU issued
system.cpu1.iq.FU_type_0::SimdCvt                   0      0.00%     64.63% # Type of FU issued
system.cpu1.iq.FU_type_0::SimdMisc                  0      0.00%     64.63% # Type of FU issued
system.cpu1.iq.FU_type_0::SimdMult                  0      0.00%     64.63% # Type of FU issued
system.cpu1.iq.FU_type_0::SimdMultAcc               0      0.00%     64.63% # Type of FU issued
system.cpu1.iq.FU_type_0::SimdShift                 0      0.00%     64.63% # Type of FU issued
system.cpu1.iq.FU_type_0::SimdShiftAcc              0      0.00%     64.63% # Type of FU issued
system.cpu1.iq.FU_type_0::SimdDiv                   0      0.00%     64.63% # Type of FU issued
system.cpu1.iq.FU_type_0::SimdSqrt                  0      0.00%     64.63% # Type of FU issued
system.cpu1.iq.FU_type_0::SimdFloatAdd              0      0.00%     64.63% # Type of FU issued
system.cpu1.iq.FU_type_0::SimdFloatAlu              0      0.00%     64.63% # Type of FU issued
system.cpu1.iq.FU_type_0::SimdFloatCmp              0      0.00%     64.63% # Type of FU issued
system.cpu1.iq.FU_type_0::SimdFloatCvt              0      0.00%     64.63% # Type of FU issued
system.cpu1.iq.FU_type_0::SimdFloatDiv              0      0.00%     64.63% # Type of FU issued
system.cpu1.iq.FU_type_0::SimdFloatMisc             0      0.00%     64.63% # Type of FU issued
system.cpu1.iq.FU_type_0::SimdFloatMult             0      0.00%     64.63% # Type of FU issued
system.cpu1.iq.FU_type_0::SimdFloatMultAcc            0      0.00%     64.63% # Type of FU issued
system.cpu1.iq.FU_type_0::SimdFloatSqrt             0      0.00%     64.63% # Type of FU issued
system.cpu1.iq.FU_type_0::SimdReduceAdd             0      0.00%     64.63% # Type of FU issued
system.cpu1.iq.FU_type_0::SimdReduceAlu             0      0.00%     64.63% # Type of FU issued
system.cpu1.iq.FU_type_0::SimdReduceCmp             0      0.00%     64.63% # Type of FU issued
system.cpu1.iq.FU_type_0::SimdFloatReduceAdd            0      0.00%     64.63% # Type of FU issued
system.cpu1.iq.FU_type_0::SimdFloatReduceCmp            0      0.00%     64.63% # Type of FU issued
system.cpu1.iq.FU_type_0::SimdAes                   0      0.00%     64.63% # Type of FU issued
system.cpu1.iq.FU_type_0::SimdAesMix                0      0.00%     64.63% # Type of FU issued
system.cpu1.iq.FU_type_0::SimdSha1Hash              0      0.00%     64.63% # Type of FU issued
system.cpu1.iq.FU_type_0::SimdSha1Hash2             0      0.00%     64.63% # Type of FU issued
system.cpu1.iq.FU_type_0::SimdSha256Hash            0      0.00%     64.63% # Type of FU issued
system.cpu1.iq.FU_type_0::SimdSha256Hash2            0      0.00%     64.63% # Type of FU issued
system.cpu1.iq.FU_type_0::SimdShaSigma2             0      0.00%     64.63% # Type of FU issued
system.cpu1.iq.FU_type_0::SimdShaSigma3             0      0.00%     64.63% # Type of FU issued
system.cpu1.iq.FU_type_0::SimdPredAlu               0      0.00%     64.63% # Type of FU issued
system.cpu1.iq.FU_type_0::MemRead                1901     21.11%     85.74% # Type of FU issued
system.cpu1.iq.FU_type_0::MemWrite               1272     14.12%     99.87% # Type of FU issued
system.cpu1.iq.FU_type_0::FloatMemRead              0      0.00%     99.87% # Type of FU issued
system.cpu1.iq.FU_type_0::FloatMemWrite            12      0.13%    100.00% # Type of FU issued
system.cpu1.iq.FU_type_0::IprAccess                 0      0.00%    100.00% # Type of FU issued
system.cpu1.iq.FU_type_0::InstPrefetch              0      0.00%    100.00% # Type of FU issued
system.cpu1.iq.FU_type_0::total                  9006                       # Type of FU issued
system.cpu1.iq.fp_alu_accesses                     14                       # Number of floating point alu accesses
system.cpu1.iq.fp_inst_queue_reads                 26                       # Number of floating instruction queue reads
system.cpu1.iq.fp_inst_queue_wakeup_accesses           12                       # Number of floating instruction queue wakeup accesses
system.cpu1.iq.fp_inst_queue_writes                12                       # Number of floating instruction queue writes
system.cpu1.iq.fu_busy_cnt                         98                       # FU busy when requested
system.cpu1.iq.fu_busy_rate                  0.010882                       # FU busy rate (busy events/executed inst)
system.cpu1.iq.fu_full::No_OpClass                  0      0.00%      0.00% # attempts to use FU when none available
system.cpu1.iq.fu_full::IntAlu                     13     13.27%     13.27% # attempts to use FU when none available
system.cpu1.iq.fu_full::IntMult                     0      0.00%     13.27% # attempts to use FU when none available
system.cpu1.iq.fu_full::IntDiv                      0      0.00%     13.27% # attempts to use FU when none available
system.cpu1.iq.fu_full::FloatAdd                    0      0.00%     13.27% # attempts to use FU when none available
system.cpu1.iq.fu_full::FloatCmp                    0      0.00%     13.27% # attempts to use FU when none available
system.cpu1.iq.fu_full::FloatCvt                    0      0.00%     13.27% # attempts to use FU when none available
system.cpu1.iq.fu_full::FloatMult                   0      0.00%     13.27% # attempts to use FU when none available
system.cpu1.iq.fu_full::FloatMultAcc                0      0.00%     13.27% # attempts to use FU when none available
system.cpu1.iq.fu_full::FloatDiv                    0      0.00%     13.27% # attempts to use FU when none available
system.cpu1.iq.fu_full::FloatMisc                   0      0.00%     13.27% # attempts to use FU when none available
system.cpu1.iq.fu_full::FloatSqrt                   0      0.00%     13.27% # attempts to use FU when none available
system.cpu1.iq.fu_full::SimdAdd                     0      0.00%     13.27% # attempts to use FU when none available
system.cpu1.iq.fu_full::SimdAddAcc                  0      0.00%     13.27% # attempts to use FU when none available
system.cpu1.iq.fu_full::SimdAlu                     0      0.00%     13.27% # attempts to use FU when none available
system.cpu1.iq.fu_full::SimdCmp                     0      0.00%     13.27% # attempts to use FU when none available
system.cpu1.iq.fu_full::SimdCvt                     0      0.00%     13.27% # attempts to use FU when none available
system.cpu1.iq.fu_full::SimdMisc                    0      0.00%     13.27% # attempts to use FU when none available
system.cpu1.iq.fu_full::SimdMult                    0      0.00%     13.27% # attempts to use FU when none available
system.cpu1.iq.fu_full::SimdMultAcc                 0      0.00%     13.27% # attempts to use FU when none available
system.cpu1.iq.fu_full::SimdShift                   0      0.00%     13.27% # attempts to use FU when none available
system.cpu1.iq.fu_full::SimdShiftAcc                0      0.00%     13.27% # attempts to use FU when none available
system.cpu1.iq.fu_full::SimdDiv                     0      0.00%     13.27% # attempts to use FU when none available
system.cpu1.iq.fu_full::SimdSqrt                    0      0.00%     13.27% # attempts to use FU when none available
system.cpu1.iq.fu_full::SimdFloatAdd                0      0.00%     13.27% # attempts to use FU when none available
system.cpu1.iq.fu_full::SimdFloatAlu                0      0.00%     13.27% # attempts to use FU when none available
system.cpu1.iq.fu_full::SimdFloatCmp                0      0.00%     13.27% # attempts to use FU when none available
system.cpu1.iq.fu_full::SimdFloatCvt                0      0.00%     13.27% # attempts to use FU when none available
system.cpu1.iq.fu_full::SimdFloatDiv                0      0.00%     13.27% # attempts to use FU when none available
system.cpu1.iq.fu_full::SimdFloatMisc               0      0.00%     13.27% # attempts to use FU when none available
system.cpu1.iq.fu_full::SimdFloatMult               0      0.00%     13.27% # attempts to use FU when none available
system.cpu1.iq.fu_full::SimdFloatMultAcc            0      0.00%     13.27% # attempts to use FU when none available
system.cpu1.iq.fu_full::SimdFloatSqrt               0      0.00%     13.27% # attempts to use FU when none available
system.cpu1.iq.fu_full::SimdReduceAdd               0      0.00%     13.27% # attempts to use FU when none available
system.cpu1.iq.fu_full::SimdReduceAlu               0      0.00%     13.27% # attempts to use FU when none available
system.cpu1.iq.fu_full::SimdReduceCmp               0      0.00%     13.27% # attempts to use FU when none available
system.cpu1.iq.fu_full::SimdFloatReduceAdd            0      0.00%     13.27% # attempts to use FU when none available
system.cpu1.iq.fu_full::SimdFloatReduceCmp            0      0.00%     13.27% # attempts to use FU when none available
system.cpu1.iq.fu_full::SimdAes                     0      0.00%     13.27% # attempts to use FU when none available
system.cpu1.iq.fu_full::SimdAesMix                  0      0.00%     13.27% # attempts to use FU when none available
system.cpu1.iq.fu_full::SimdSha1Hash                0      0.00%     13.27% # attempts to use FU when none available
system.cpu1.iq.fu_full::SimdSha1Hash2               0      0.00%     13.27% # attempts to use FU when none available
system.cpu1.iq.fu_full::SimdSha256Hash              0      0.00%     13.27% # attempts to use FU when none available
system.cpu1.iq.fu_full::SimdSha256Hash2             0      0.00%     13.27% # attempts to use FU when none available
system.cpu1.iq.fu_full::SimdShaSigma2               0      0.00%     13.27% # attempts to use FU when none available
system.cpu1.iq.fu_full::SimdShaSigma3               0      0.00%     13.27% # attempts to use FU when none available
system.cpu1.iq.fu_full::SimdPredAlu                 0      0.00%     13.27% # attempts to use FU when none available
system.cpu1.iq.fu_full::MemRead                    52     53.06%     66.33% # attempts to use FU when none available
system.cpu1.iq.fu_full::MemWrite                   31     31.63%     97.96% # attempts to use FU when none available
system.cpu1.iq.fu_full::FloatMemRead                0      0.00%     97.96% # attempts to use FU when none available
system.cpu1.iq.fu_full::FloatMemWrite               2      2.04%    100.00% # attempts to use FU when none available
[...]
system.cpu1.dcache.WriteReq_mshr_misses::total           80                       # number of WriteReq MSHR misses
system.cpu1.dcache.WriteReq_mshr_miss_latency::.cpu1.data      3749000                       # number of WriteReq MSHR miss cycles
system.cpu1.dcache.WriteReq_mshr_miss_latency::total      3749000                       # number of WriteReq MSHR miss cycles
system.cpu1.dcache.WriteReq_mshr_miss_rate::.cpu1.data     0.073059                       # mshr miss rate for WriteReq accesses
system.cpu1.dcache.WriteReq_mshr_miss_rate::total     0.073059                       # mshr miss rate for WriteReq accesses
system.cpu1.dcache.WriteReq_avg_mshr_miss_latency::.cpu1.data 46862.500000                       # average WriteReq mshr miss latency
system.cpu1.dcache.WriteReq_avg_mshr_miss_latency::total 46862.500000                       # average WriteReq mshr miss latency
system.cpu1.dcache.LoadLockedReq_hits::.cpu1.data           80                       # number of LoadLockedReq hits
system.cpu1.dcache.LoadLockedReq_hits::total           80                       # number of LoadLockedReq hits
system.cpu1.dcache.LoadLockedReq_misses::.cpu1.data           42                       # number of LoadLockedReq misses
system.cpu1.dcache.LoadLockedReq_misses::total           42                       # number of LoadLockedReq misses
system.cpu1.dcache.LoadLockedReq_miss_latency::.cpu1.data       220500                       # number of LoadLockedReq miss cycles
system.cpu1.dcache.LoadLockedReq_miss_latency::total       220500                       # number of LoadLockedReq miss cycles
system.cpu1.dcache.LoadLockedReq_accesses::.cpu1.data          122                       # number of LoadLockedReq accesses(hits+misses)
system.cpu1.dcache.LoadLockedReq_accesses::total          122                       # number of LoadLockedReq accesses(hits+misses)
system.cpu1.dcache.LoadLockedReq_miss_rate::.cpu1.data     0.344262                       # miss rate for LoadLockedReq accesses
system.cpu1.dcache.LoadLockedReq_miss_rate::total     0.344262                       # miss rate for LoadLockedReq accesses
system.cpu1.dcache.LoadLockedReq_avg_miss_latency::.cpu1.data         5250                       # average LoadLockedReq miss latency
system.cpu1.dcache.LoadLockedReq_avg_miss_latency::total         5250                       # average LoadLockedReq miss latency
system.cpu1.dcache.LoadLockedReq_mshr_hits::.cpu1.data           23                       # number of LoadLockedReq MSHR hits
system.cpu1.dcache.LoadLockedReq_mshr_hits::total           23                       # number of LoadLockedReq MSHR hits
system.cpu1.dcache.LoadLockedReq_mshr_misses::.cpu1.data           19                       # number of LoadLockedReq MSHR misses
system.cpu1.dcache.LoadLockedReq_mshr_misses::total           19                       # number of LoadLockedReq MSHR misses
system.cpu1.dcache.LoadLockedReq_mshr_miss_latency::.cpu1.data       101500                       # number of LoadLockedReq MSHR miss cycles
system.cpu1.dcache.LoadLockedReq_mshr_miss_latency::total       101500                       # number of LoadLockedReq MSHR miss cycles
system.cpu1.dcache.LoadLockedReq_mshr_miss_rate::.cpu1.data     0.155738                       # mshr miss rate for LoadLockedReq accesses
system.cpu1.dcache.LoadLockedReq_mshr_miss_rate::total     0.155738                       # mshr miss rate for LoadLockedReq accesses
system.cpu1.dcache.LoadLockedReq_avg_mshr_miss_latency::.cpu1.data  5342.105263                       # average LoadLockedReq mshr miss latency
system.cpu1.dcache.LoadLockedReq_avg_mshr_miss_latency::total  5342.105263                       # average LoadLockedReq mshr miss latency
system.cpu1.dcache.StoreCondReq_hits::.cpu1.data           51                       # number of StoreCondReq hits
system.cpu1.dcache.StoreCondReq_hits::total           51                       # number of StoreCondReq hits
system.cpu1.dcache.StoreCondReq_misses::.cpu1.data           22                       # number of StoreCondReq misses
system.cpu1.dcache.StoreCondReq_misses::total           22                       # number of StoreCondReq misses
system.cpu1.dcache.StoreCondReq_miss_latency::.cpu1.data       112000                       # number of StoreCondReq miss cycles
system.cpu1.dcache.StoreCondReq_miss_latency::total       112000                       # number of StoreCondReq miss cycles
system.cpu1.dcache.StoreCondReq_accesses::.cpu1.data           73                       # number of StoreCondReq accesses(hits+misses)
system.cpu1.dcache.StoreCondReq_accesses::total           73                       # number of StoreCondReq accesses(hits+misses)
system.cpu1.dcache.StoreCondReq_miss_rate::.cpu1.data     0.301370                       # miss rate for StoreCondReq accesses
system.cpu1.dcache.StoreCondReq_miss_rate::total     0.301370                       # miss rate for StoreCondReq accesses
system.cpu1.dcache.StoreCondReq_avg_miss_latency::.cpu1.data  5090.909091                       # average StoreCondReq miss latency
system.cpu1.dcache.StoreCondReq_avg_miss_latency::total  5090.909091                       # average StoreCondReq miss latency
system.cpu1.dcache.StoreCondReq_mshr_misses::.cpu1.data           22                       # number of StoreCondReq MSHR misses
system.cpu1.dcache.StoreCondReq_mshr_misses::total           22                       # number of StoreCondReq MSHR misses
system.cpu1.dcache.StoreCondReq_mshr_miss_latency::.cpu1.data        91000                       # number of StoreCondReq MSHR miss cycles
system.cpu1.dcache.StoreCondReq_mshr_miss_latency::total        91000                       # number of StoreCondReq MSHR miss cycles
system.cpu1.dcache.StoreCondReq_mshr_miss_rate::.cpu1.data     0.301370                       # mshr miss rate for StoreCondReq accesses
system.cpu1.dcache.StoreCondReq_mshr_miss_rate::total     0.301370                       # mshr miss rate for StoreCondReq accesses
system.cpu1.dcache.StoreCondReq_avg_mshr_miss_latency::.cpu1.data  4136.363636                       # average StoreCondReq mshr miss latency
system.cpu1.dcache.StoreCondReq_avg_mshr_miss_latency::total  4136.363636                       # average StoreCondReq mshr miss latency
system.cpu1.dcache.StoreCondFailReq_miss_latency::.cpu1.data        16000                       # number of StoreCondFailReq miss cycles
system.cpu1.dcache.StoreCondFailReq_miss_latency::total        16000                       # number of StoreCondFailReq miss cycles
system.cpu1.dcache.StoreCondFailReq_avg_miss_latency::.cpu1.data          inf                       # average StoreCondFailReq miss latency
system.cpu1.dcache.StoreCondFailReq_avg_miss_latency::total          inf                       # average StoreCondFailReq miss latency
system.cpu1.dcache.StoreCondFailReq_mshr_miss_latency::.cpu1.data        15000                       # number of StoreCondFailReq MSHR miss cycles
system.cpu1.dcache.StoreCondFailReq_mshr_miss_latency::total        15000                       # number of StoreCondFailReq MSHR miss cycles
system.cpu1.dcache.StoreCondFailReq_avg_mshr_miss_latency::.cpu1.data          inf                       # average StoreCondFailReq mshr miss latency
system.cpu1.dcache.StoreCondFailReq_avg_mshr_miss_latency::total          inf                       # average StoreCondFailReq mshr miss latency
system.cpu1.dcache.SwapReq_hits::.cpu1.data           25                       # number of SwapReq hits
system.cpu1.dcache.SwapReq_hits::total             25                       # number of SwapReq hits
system.cpu1.dcache.SwapReq_misses::.cpu1.data           72                       # number of SwapReq misses
system.cpu1.dcache.SwapReq_misses::total           72                       # number of SwapReq misses
system.cpu1.dcache.SwapReq_miss_latency::.cpu1.data       345500                       # number of SwapReq miss cycles
system.cpu1.dcache.SwapReq_miss_latency::total       345500                       # number of SwapReq miss cycles
system.cpu1.dcache.SwapReq_accesses::.cpu1.data           97                       # number of SwapReq accesses(hits+misses)
system.cpu1.dcache.SwapReq_accesses::total           97                       # number of SwapReq accesses(hits+misses)
system.cpu1.dcache.SwapReq_miss_rate::.cpu1.data     0.742268                       # miss rate for SwapReq accesses
system.cpu1.dcache.SwapReq_miss_rate::total     0.742268                       # miss rate for SwapReq accesses
system.cpu1.dcache.SwapReq_avg_miss_latency::.cpu1.data  4798.611111                       # average SwapReq miss latency
system.cpu1.dcache.SwapReq_avg_miss_latency::total  4798.611111                       # average SwapReq miss latency
system.cpu1.dcache.SwapReq_mshr_misses::.cpu1.data           72                       # number of SwapReq MSHR misses
system.cpu1.dcache.SwapReq_mshr_misses::total           72                       # number of SwapReq MSHR misses
system.cpu1.dcache.SwapReq_mshr_miss_latency::.cpu1.data       273500                       # number of SwapReq MSHR miss cycles
system.cpu1.dcache.SwapReq_mshr_miss_latency::total       273500                       # number of SwapReq MSHR miss cycles
system.cpu1.dcache.SwapReq_mshr_miss_rate::.cpu1.data     0.742268                       # mshr miss rate for SwapReq accesses
system.cpu1.dcache.SwapReq_mshr_miss_rate::total     0.742268                       # mshr miss rate for SwapReq accesses
system.cpu1.dcache.SwapReq_avg_mshr_miss_latency::.cpu1.data  3798.611111                       # average SwapReq mshr miss latency
system.cpu1.dcache.SwapReq_avg_mshr_miss_latency::total  3798.611111                       # average SwapReq mshr miss latency
system.cpu1.dcache.tags.pwrStateResidencyTicks::UNDEFINED    804760500                       # Cumulative time (in ticks) in various power states
system.cpu1.dcache.tags.tagsinuse           10.214393                       # Cycle average of tags in use
system.cpu1.dcache.tags.total_refs               2496                       # Total number of references to valid blocks.
system.cpu1.dcache.tags.sampled_refs              331                       # Sample count of references to valid blocks.
system.cpu1.dcache.tags.avg_refs             7.540785                       # Average number of references to valid blocks.
system.cpu1.dcache.tags.warmup_cycle        364856500                       # Cycle when the warmup percentage was hit.
system.cpu1.dcache.tags.occ_blocks::.cpu1.data    10.214393                       # Average occupied blocks per requestor
system.cpu1.dcache.tags.occ_percent::.cpu1.data     0.319200                       # Average percentage of cache occupancy
system.cpu1.dcache.tags.occ_percent::total     0.319200                       # Average percentage of cache occupancy
system.cpu1.dcache.tags.occ_task_id_blocks::1024           24                       # Occupied blocks per task id
system.cpu1.dcache.tags.age_task_id_blocks_1024::2           24                       # Occupied blocks per task id
system.cpu1.dcache.tags.occ_task_id_percent::1024     0.750000                       # Percentage of cache occupancy per task id
system.cpu1.dcache.tags.tag_accesses             6211                       # Number of tag accesses
system.cpu1.dcache.tags.data_accesses            6211                       # Number of data accesses
system.cpu_clk_domain.clock                       500                       # Clock period in ticks
system.tol2bus.pwrStateResidencyTicks::UNDEFINED    804760500                       # Cumulative time (in ticks) in various power states
system.tol2bus.trans_dist::ReadResp             36917                       # Transaction distribution
system.tol2bus.trans_dist::WritebackDirty         5379                       # Transaction distribution
system.tol2bus.trans_dist::WritebackClean        35080                       # Transaction distribution
system.tol2bus.trans_dist::CleanEvict           16073                       # Transaction distribution
system.tol2bus.trans_dist::UpgradeReq             278                       # Transaction distribution
system.tol2bus.trans_dist::SCUpgradeReq           150                       # Transaction distribution
system.tol2bus.trans_dist::UpgradeResp            428                       # Transaction distribution
system.tol2bus.trans_dist::SCUpgradeFailReq            7                       # Transaction distribution
system.tol2bus.trans_dist::UpgradeFailResp            7                       # Transaction distribution
system.tol2bus.trans_dist::ReadExReq             2887                       # Transaction distribution
system.tol2bus.trans_dist::ReadExResp            2887                       # Transaction distribution
system.tol2bus.trans_dist::ReadCleanReq         22163                       # Transaction distribution
system.tol2bus.trans_dist::ReadSharedReq        14754                       # Transaction distribution
system.tol2bus.trans_dist::InvalidateReq           17                       # Transaction distribution
system.tol2bus.trans_dist::InvalidateResp           17                       # Transaction distribution
system.tol2bus.pkt_count_system.cpu0.icache.mem_side::system.l2.cpu_side        62440                       # Packet count per connected master and slave (bytes)
system.tol2bus.pkt_count_system.cpu0.dcache.mem_side::system.l2.cpu_side        50004                       # Packet count per connected master and slave (bytes)
system.tol2bus.pkt_count_system.cpu1.icache.mem_side::system.l2.cpu_side         1384                       # Packet count per connected master and slave (bytes)
system.tol2bus.pkt_count_system.cpu1.dcache.mem_side::system.l2.cpu_side          612                       # Packet count per connected master and slave (bytes)
system.tol2bus.pkt_count_system.cpu2.icache.mem_side::system.l2.cpu_side         1075                       # Packet count per connected master and slave (bytes)
system.tol2bus.pkt_count_system.cpu2.dcache.mem_side::system.l2.cpu_side          603                       # Packet count per connected master and slave (bytes)
system.tol2bus.pkt_count_system.cpu3.icache.mem_side::system.l2.cpu_side         1462                       # Packet count per connected master and slave (bytes)
system.tol2bus.pkt_count_system.cpu3.dcache.mem_side::system.l2.cpu_side          599                       # Packet count per connected master and slave (bytes)
system.tol2bus.pkt_count::total                118179                       # Packet count per connected master and slave (bytes)
system.tol2bus.pkt_size_system.cpu0.icache.mem_side::system.l2.cpu_side      2663424                       # Cumulative packet size per connected master and slave (bytes)
system.tol2bus.pkt_size_system.cpu0.dcache.mem_side::system.l2.cpu_side      2118272                       # Cumulative packet size per connected master and slave (bytes)
system.tol2bus.pkt_size_system.cpu1.icache.mem_side::system.l2.cpu_side        58368                       # Cumulative packet size per connected master and slave (bytes)
system.tol2bus.pkt_size_system.cpu1.dcache.mem_side::system.l2.cpu_side        11392                       # Cumulative packet size per connected master and slave (bytes)
system.tol2bus.pkt_size_system.cpu2.icache.mem_side::system.l2.cpu_side        45184                       # Cumulative packet size per connected master and slave (bytes)
system.tol2bus.pkt_size_system.cpu2.dcache.mem_side::system.l2.cpu_side        12416                       # Cumulative packet size per connected master and slave (bytes)
system.tol2bus.pkt_size_system.cpu3.icache.mem_side::system.l2.cpu_side        61696                       # Cumulative packet size per connected master and slave (bytes)
system.tol2bus.pkt_size_system.cpu3.dcache.mem_side::system.l2.cpu_side        10240                       # Cumulative packet size per connected master and slave (bytes)
system.tol2bus.pkt_size::total                4980992                       # Cumulative packet size per connected master and slave (bytes)
system.tol2bus.snoops                           18865                       # Total snoops (count)
system.tol2bus.snoopTraffic                    156288                       # Total snoop traffic (bytes)
system.tol2bus.snoop_fanout::samples            58002                       # Request fanout histogram
system.tol2bus.snoop_fanout::mean            0.274387                       # Request fanout histogram
system.tol2bus.snoop_fanout::stdev           0.618894                       # Request fanout histogram
system.tol2bus.snoop_fanout::underflows             0      0.00%      0.00% # Request fanout histogram
system.tol2bus.snoop_fanout::0                  45683     78.76%     78.76% # Request fanout histogram
system.tol2bus.snoop_fanout::1                  10176     17.54%     96.31% # Request fanout histogram
system.tol2bus.snoop_fanout::2                    975      1.68%     97.99% # Request fanout histogram
system.tol2bus.snoop_fanout::3                    883      1.52%     99.51% # Request fanout histogram
system.tol2bus.snoop_fanout::4                    285      0.49%    100.00% # Request fanout histogram
system.tol2bus.snoop_fanout::5                      0      0.00%    100.00% # Request fanout histogram
system.tol2bus.snoop_fanout::6                      0      0.00%    100.00% # Request fanout histogram
system.tol2bus.snoop_fanout::7                      0      0.00%    100.00% # Request fanout histogram
system.tol2bus.snoop_fanout::8                      0      0.00%    100.00% # Request fanout histogram
system.tol2bus.snoop_fanout::overflows              0      0.00%    100.00% # Request fanout histogram
system.tol2bus.snoop_fanout::min_value              0                       # Request fanout histogram
system.tol2bus.snoop_fanout::max_value              4                       # Request fanout histogram
system.tol2bus.snoop_fanout::total              58002                       # Request fanout histogram
system.tol2bus.reqLayer0.occupancy           78310493                       # Layer occupancy (ticks)
system.tol2bus.reqLayer0.utilization              9.7                       # Layer utilization (%)
system.tol2bus.respLayer5.occupancy            473489                       # Layer occupancy (ticks)
system.tol2bus.respLayer5.utilization             0.1                       # Layer utilization (%)
system.tol2bus.respLayer4.occupancy            564476                       # Layer occupancy (ticks)
system.tol2bus.respLayer4.utilization             0.1                       # Layer utilization (%)
system.tol2bus.respLayer7.occupancy            552987                       # Layer occupancy (ticks)
system.tol2bus.respLayer7.utilization             0.1                       # Layer utilization (%)
system.tol2bus.respLayer6.occupancy            769448                       # Layer occupancy (ticks)
system.tol2bus.respLayer6.utilization             0.1                       # Layer utilization (%)
system.tol2bus.respLayer1.occupancy          25141491                       # Layer occupancy (ticks)
system.tol2bus.respLayer1.utilization             3.1                       # Layer utilization (%)
system.tol2bus.respLayer0.occupancy          31243983                       # Layer occupancy (ticks)
system.tol2bus.respLayer0.utilization             3.9                       # Layer utilization (%)
system.tol2bus.respLayer3.occupancy            550480                       # Layer occupancy (ticks)
system.tol2bus.respLayer3.utilization             0.1                       # Layer utilization (%)
system.tol2bus.respLayer2.occupancy            730447                       # Layer occupancy (ticks)
system.tol2bus.respLayer2.utilization             0.1                       # Layer utilization (%)

---------- End Simulation Statistics   ----------
