
---------- Begin Simulation Statistics ----------
final_tick                               2185125348000                       # Number of ticks from beginning of simulation (restored from checkpoints and never reset)
host_inst_rate                                  59399                       # Simulator instruction rate (inst/s)
host_mem_usage                                 703528                       # Number of bytes of host memory used
host_op_rate                                    59591                       # Simulator op (including micro ops) rate (op/s)
host_seconds                                 39645.56                       # Real time elapsed on the host
host_tick_rate                               55116527                       # Simulator tick rate (ticks/s)
sim_freq                                 1000000000000                       # Frequency of simulated ticks
sim_insts                                  2354905792                       # Number of instructions simulated
sim_ops                                    2362514705                       # Number of ops (including micro ops) simulated
sim_seconds                                  2.185125                       # Number of seconds simulated
sim_ticks                                2185125348000                       # Number of ticks simulated
system.cpu0.branchPred.BTBCorrect                   0                       # Number of correct BTB predictions (this stat may not work properly.
system.cpu0.branchPred.BTBHitPct            86.568990                       # BTB Hit Percentage
system.cpu0.branchPred.BTBHits              301539861                       # Number of BTB hits
system.cpu0.branchPred.BTBLookups           348323183                       # Number of BTB lookups
system.cpu0.branchPred.RASInCorrect                 0                       # Number of incorrect RAS predictions.
system.cpu0.branchPred.condIncorrect         24604034                       # Number of conditional branches incorrect
system.cpu0.branchPred.condPredicted        475401270                       # Number of conditional branches predicted
system.cpu0.branchPred.indirectHits          38855760                       # Number of indirect target hits.
system.cpu0.branchPred.indirectLookups       40474509                       # Number of indirect predictor lookups.
system.cpu0.branchPred.indirectMisses         1618749                       # Number of indirect misses.
system.cpu0.branchPred.lookups              604101447                       # Number of BP lookups
system.cpu0.branchPred.usedRAS                      0                       # Number of times the RAS was used to get a target.
system.cpu0.branchPredindirectMispredicted      3963131                       # Number of mispredicted indirect branches.
system.cpu0.commit.amos                       3801867                       # Number of atomic instructions committed
system.cpu0.commit.branchMispredicts         16284126                       # The number of times a branch was mispredicted
system.cpu0.commit.branches                 555038108                       # Number of branches committed
system.cpu0.commit.bw_lim_events             62448260                       # number cycles where commit BW limit reached
system.cpu0.commit.commitNonSpecStalls       11419520                       # The number of times commit has been forced to stall to communicate backwards
system.cpu0.commit.commitSquashedInsts      180065197                       # The number of squashed insts skipped by commit
system.cpu0.commit.committedInsts          2224835908                       # Number of instructions committed
system.cpu0.commit.committedOps            2228643071                       # Number of ops (including micro ops) committed
system.cpu0.commit.committed_per_cycle::samples   4043043861                       # Number of insts commited each cycle
system.cpu0.commit.committed_per_cycle::mean     0.551229                       # Number of insts commited each cycle
system.cpu0.commit.committed_per_cycle::stdev     1.307426                       # Number of insts commited each cycle
system.cpu0.commit.committed_per_cycle::underflows            0      0.00%      0.00% # Number of insts commited each cycle
system.cpu0.commit.committed_per_cycle::0   2941283622     72.75%     72.75% # Number of insts commited each cycle
system.cpu0.commit.committed_per_cycle::1    679257460     16.80%     89.55% # Number of insts commited each cycle
system.cpu0.commit.committed_per_cycle::2    145360844      3.60%     93.15% # Number of insts commited each cycle
system.cpu0.commit.committed_per_cycle::3    146210263      3.62%     96.76% # Number of insts commited each cycle
system.cpu0.commit.committed_per_cycle::4     40888741      1.01%     97.77% # Number of insts commited each cycle
system.cpu0.commit.committed_per_cycle::5     15696719      0.39%     98.16% # Number of insts commited each cycle
system.cpu0.commit.committed_per_cycle::6      4877169      0.12%     98.28% # Number of insts commited each cycle
system.cpu0.commit.committed_per_cycle::7      7020783      0.17%     98.46% # Number of insts commited each cycle
system.cpu0.commit.committed_per_cycle::8     62448260      1.54%    100.00% # Number of insts commited each cycle
system.cpu0.commit.committed_per_cycle::overflows            0      0.00%    100.00% # Number of insts commited each cycle
system.cpu0.commit.committed_per_cycle::min_value            0                       # Number of insts commited each cycle
system.cpu0.commit.committed_per_cycle::max_value            8                       # Number of insts commited each cycle
system.cpu0.commit.committed_per_cycle::total   4043043861                       # Number of insts commited each cycle
system.cpu0.commit.fp_insts                        46                       # Number of committed floating point instructions.
system.cpu0.commit.function_calls            44163971                       # Number of function calls committed.
system.cpu0.commit.int_insts               2150939157                       # Number of committed integer instructions.
system.cpu0.commit.loads                    691555027                       # Number of loads committed
system.cpu0.commit.membars                    7608903                       # Number of memory barriers committed
system.cpu0.commit.op_class_0::No_OpClass      7608909      0.34%      0.34% # Class of committed instruction
system.cpu0.commit.op_class_0::IntAlu      1238791134     55.58%     55.93% # Class of committed instruction
system.cpu0.commit.op_class_0::IntMult       18316825      0.82%     56.75% # Class of committed instruction
system.cpu0.commit.op_class_0::IntDiv         3801411      0.17%     56.92% # Class of committed instruction
system.cpu0.commit.op_class_0::FloatAdd             0      0.00%     56.92% # Class of committed instruction
system.cpu0.commit.op_class_0::FloatCmp             4      0.00%     56.92% # Class of committed instruction
system.cpu0.commit.op_class_0::FloatCvt            12      0.00%     56.92% # Class of committed instruction
system.cpu0.commit.op_class_0::FloatMult            0      0.00%     56.92% # Class of committed instruction
system.cpu0.commit.op_class_0::FloatMultAcc            0      0.00%     56.92% # Class of committed instruction
system.cpu0.commit.op_class_0::FloatDiv             2      0.00%     56.92% # Class of committed instruction
system.cpu0.commit.op_class_0::FloatMisc            4      0.00%     56.92% # Class of committed instruction
system.cpu0.commit.op_class_0::FloatSqrt            0      0.00%     56.92% # Class of committed instruction
system.cpu0.commit.op_class_0::SimdAdd              0      0.00%     56.92% # Class of committed instruction
system.cpu0.commit.op_class_0::SimdAddAcc            0      0.00%     56.92% # Class of committed instruction
system.cpu0.commit.op_class_0::SimdAlu              0      0.00%     56.92% # Class of committed instruction
system.cpu0.commit.op_class_0::SimdCmp              0      0.00%     56.92% # Class of committed instruction
system.cpu0.commit.op_class_0::SimdCvt              0      0.00%     56.92% # Class of committed instruction
system.cpu0.commit.op_class_0::SimdMisc             0      0.00%     56.92% # Class of committed instruction
system.cpu0.commit.op_class_0::SimdMult             0      0.00%     56.92% # Class of committed instruction
system.cpu0.commit.op_class_0::SimdMultAcc            0      0.00%     56.92% # Class of committed instruction
system.cpu0.commit.op_class_0::SimdShift            0      0.00%     56.92% # Class of committed instruction
system.cpu0.commit.op_class_0::SimdShiftAcc            0      0.00%     56.92% # Class of committed instruction
system.cpu0.commit.op_class_0::SimdDiv              0      0.00%     56.92% # Class of committed instruction
system.cpu0.commit.op_class_0::SimdSqrt             0      0.00%     56.92% # Class of committed instruction
system.cpu0.commit.op_class_0::SimdFloatAdd            0      0.00%     56.92% # Class of committed instruction
system.cpu0.commit.op_class_0::SimdFloatAlu            0      0.00%     56.92% # Class of committed instruction
system.cpu0.commit.op_class_0::SimdFloatCmp            0      0.00%     56.92% # Class of committed instruction
system.cpu0.commit.op_class_0::SimdFloatCvt            0      0.00%     56.92% # Class of committed instruction
system.cpu0.commit.op_class_0::SimdFloatDiv            0      0.00%     56.92% # Class of committed instruction
system.cpu0.commit.op_class_0::SimdFloatMisc            0      0.00%     56.92% # Class of committed instruction
system.cpu0.commit.op_class_0::SimdFloatMult            0      0.00%     56.92% # Class of committed instruction
system.cpu0.commit.op_class_0::SimdFloatMultAcc            0      0.00%     56.92% # Class of committed instruction
system.cpu0.commit.op_class_0::SimdFloatSqrt            0      0.00%     56.92% # Class of committed instruction
system.cpu0.commit.op_class_0::SimdReduceAdd            0      0.00%     56.92% # Class of committed instruction
system.cpu0.commit.op_class_0::SimdReduceAlu            0      0.00%     56.92% # Class of committed instruction
system.cpu0.commit.op_class_0::SimdReduceCmp            0      0.00%     56.92% # Class of committed instruction
system.cpu0.commit.op_class_0::SimdFloatReduceAdd            0      0.00%     56.92% # Class of committed instruction
system.cpu0.commit.op_class_0::SimdFloatReduceCmp            0      0.00%     56.92% # Class of committed instruction
system.cpu0.commit.op_class_0::SimdAes              0      0.00%     56.92% # Class of committed instruction
system.cpu0.commit.op_class_0::SimdAesMix            0      0.00%     56.92% # Class of committed instruction
system.cpu0.commit.op_class_0::SimdSha1Hash            0      0.00%     56.92% # Class of committed instruction
system.cpu0.commit.op_class_0::SimdSha1Hash2            0      0.00%     56.92% # Class of committed instruction
system.cpu0.commit.op_class_0::SimdSha256Hash            0      0.00%     56.92% # Class of committed instruction
system.cpu0.commit.op_class_0::SimdSha256Hash2            0      0.00%     56.92% # Class of committed instruction
system.cpu0.commit.op_class_0::SimdShaSigma2            0      0.00%     56.92% # Class of committed instruction
system.cpu0.commit.op_class_0::SimdShaSigma3            0      0.00%     56.92% # Class of committed instruction
system.cpu0.commit.op_class_0::SimdPredAlu            0      0.00%     56.92% # Class of committed instruction
system.cpu0.commit.op_class_0::MemRead      695356886     31.20%     88.12% # Class of committed instruction
system.cpu0.commit.op_class_0::MemWrite     264767860     11.88%    100.00% # Class of committed instruction
system.cpu0.commit.op_class_0::FloatMemRead            8      0.00%    100.00% # Class of committed instruction
system.cpu0.commit.op_class_0::FloatMemWrite           16      0.00%    100.00% # Class of committed instruction
system.cpu0.commit.op_class_0::IprAccess            0      0.00%    100.00% # Class of committed instruction
system.cpu0.commit.op_class_0::InstPrefetch            0      0.00%    100.00% # Class of committed instruction
system.cpu0.commit.op_class_0::total       2228643071                       # Class of committed instruction
system.cpu0.commit.refs                     960124770                       # Number of memory references committed
system.cpu0.commit.swp_count                        0                       # Number of s/w prefetches committed
system.cpu0.commit.vec_insts                        0                       # Number of committed Vector instructions.
system.cpu0.committedInsts                 2224835908                       # Number of Instructions Simulated
system.cpu0.committedOps                   2228643071                       # Number of Ops (including micro ops) Simulated
system.cpu0.cpi                              1.962085                       # CPI: Cycles Per Instruction
system.cpu0.cpi_total                        1.962085                       # CPI: Total CPI of All Threads
system.cpu0.decode.BlockedCycles            665340428                       # Number of cycles decode is blocked
system.cpu0.decode.BranchMispred              8341134                       # Number of times decode detected a branch misprediction
system.cpu0.decode.BranchResolved           298562539                       # Number of times decode resolved a branch
system.cpu0.decode.DecodedInsts            2456543440                       # Number of instructions handled by decode
system.cpu0.decode.IdleCycles              1691067032                       # Number of cycles decode is idle
system.cpu0.decode.RunCycles               1694018465                       # Number of cycles decode is running
system.cpu0.decode.SquashCycles              16307345                       # Number of cycles decode is squashing
system.cpu0.decode.SquashedInsts             13097002                       # Number of squashed instructions handled by decode
system.cpu0.decode.UnblockCycles             10167028                       # Number of cycles decode is unblocking
system.cpu0.dtb.accesses                            0                       # DTB accesses
system.cpu0.dtb.hits                                0                       # DTB hits
system.cpu0.dtb.misses                              0                       # DTB misses
system.cpu0.dtb.read_accesses                       0                       # DTB read accesses
system.cpu0.dtb.read_hits                           0                       # DTB read hits
system.cpu0.dtb.read_misses                         0                       # DTB read misses
system.cpu0.dtb.write_accesses                      0                       # DTB write accesses
system.cpu0.dtb.write_hits                          0                       # DTB write hits
system.cpu0.dtb.write_misses                        0                       # DTB write misses
system.cpu0.fetch.Branches                  604101447                       # Number of branches that fetch encountered
system.cpu0.fetch.CacheLines                434392347                       # Number of cache lines fetched
system.cpu0.fetch.Cycles                   2373906804                       # Number of cycles fetch has run and was not squashing or blocked
system.cpu0.fetch.IcacheSquashes             10634103                       # Number of outstanding Icache misses that were squashed
system.cpu0.fetch.IcacheWaitRetryStallCycles          116                       # Number of stall cycles due to full MSHR
system.cpu0.fetch.Insts                    2514280093                       # Number of instructions fetch has processed
system.cpu0.fetch.MiscStallCycles                 153                       # Number of cycles fetch has spent waiting on interrupts, or bad addresses, or out of MSHRs
system.cpu0.fetch.PendingTrapStallCycles          397                       # Number of stall cycles due to pending traps
system.cpu0.fetch.SquashCycles               49254634                       # Number of cycles fetch has spent squashing
system.cpu0.fetch.branchRate                 0.138387                       # Number of branch fetches per cycle
system.cpu0.fetch.icacheStallCycles        1678365511                       # Number of cycles fetch is stalled on an Icache miss
system.cpu0.fetch.predictedBranches         340395621                       # Number of branches that fetch has predicted taken
system.cpu0.fetch.rate                       0.575967                       # Number of inst fetches per cycle
system.cpu0.fetch.rateDist::samples        4076900298                       # Number of instructions fetched each cycle (Total)
system.cpu0.fetch.rateDist::mean             0.619925                       # Number of instructions fetched each cycle (Total)
system.cpu0.fetch.rateDist::stdev            0.905857                       # Number of instructions fetched each cycle (Total)
system.cpu0.fetch.rateDist::underflows              0      0.00%      0.00% # Number of instructions fetched each cycle (Total)
system.cpu0.fetch.rateDist::0              2297770613     56.36%     56.36% # Number of instructions fetched each cycle (Total)
system.cpu0.fetch.rateDist::1              1303863623     31.98%     88.34% # Number of instructions fetched each cycle (Total)
system.cpu0.fetch.rateDist::2               289452467      7.10%     95.44% # Number of instructions fetched each cycle (Total)
system.cpu0.fetch.rateDist::3               144529544      3.55%     98.99% # Number of instructions fetched each cycle (Total)
system.cpu0.fetch.rateDist::4                18322689      0.45%     99.44% # Number of instructions fetched each cycle (Total)
system.cpu0.fetch.rateDist::5                11472830      0.28%     99.72% # Number of instructions fetched each cycle (Total)
system.cpu0.fetch.rateDist::6                 3869831      0.09%     99.81% # Number of instructions fetched each cycle (Total)
system.cpu0.fetch.rateDist::7                 3809545      0.09%     99.91% # Number of instructions fetched each cycle (Total)
system.cpu0.fetch.rateDist::8                 3809156      0.09%    100.00% # Number of instructions fetched each cycle (Total)
system.cpu0.fetch.rateDist::overflows               0      0.00%    100.00% # Number of instructions fetched each cycle (Total)
system.cpu0.fetch.rateDist::min_value               0                       # Number of instructions fetched each cycle (Total)
system.cpu0.fetch.rateDist::max_value               8                       # Number of instructions fetched each cycle (Total)
system.cpu0.fetch.rateDist::total          4076900298                       # Number of instructions fetched each cycle (Total)
system.cpu0.fp_regfile_reads                       40                       # number of floating regfile reads
system.cpu0.fp_regfile_writes                      22                       # number of floating regfile writes
system.cpu0.idleCycles                      288416290                       # Total number of cycles that the CPU has spent unscheduled due to idling
system.cpu0.iew.branchMispredicts            16479630                       # Number of branch mispredicts detected at execute
system.cpu0.iew.exec_branches               573478921                       # Number of branches executed
system.cpu0.iew.exec_nop                            0                       # number of nop insts executed
system.cpu0.iew.exec_rate                    0.533055                       # Inst execution rate
system.cpu0.iew.exec_refs                  1009094614                       # number of memory reference insts executed
system.cpu0.iew.exec_stores                 274477141                       # Number of stores executed
system.cpu0.iew.exec_swp                            0                       # number of swp insts executed
system.cpu0.iew.iewBlockCycles              538291603                       # Number of cycles IEW is blocking
system.cpu0.iew.iewDispLoadInsts            756257715                       # Number of dispatched load instructions
system.cpu0.iew.iewDispNonSpecInsts           8507691                       # Number of dispatched non-speculative instructions
system.cpu0.iew.iewDispSquashedInsts          5275834                       # Number of squashed instructions skipped by dispatch
system.cpu0.iew.iewDispStoreInsts           288239319                       # Number of dispatched store instructions
system.cpu0.iew.iewDispatchedInsts         2408649755                       # Number of instructions dispatched to IQ
system.cpu0.iew.iewExecLoadInsts            734617473                       # Number of load instructions executed
system.cpu0.iew.iewExecSquashedInsts         13013630                       # Number of squashed instructions skipped in execute
system.cpu0.iew.iewExecutedInsts           2326955913                       # Number of executed instructions
system.cpu0.iew.iewIQFullEvents               4343300                       # Number of times the IQ has become full, causing a stall
system.cpu0.iew.iewIdleCycles                       0                       # Number of cycles IEW is idle
system.cpu0.iew.iewLSQFullEvents             14909228                       # Number of times the LSQ has become full, causing a stall
system.cpu0.iew.iewSquashCycles              16307345                       # Number of cycles IEW is squashing
system.cpu0.iew.iewUnblockCycles             23182085                       # Number of cycles IEW is unblocking
system.cpu0.iew.lsq.thread0.blockedLoads            0                       # Number of blocked loads due to partial load-store forwarding
system.cpu0.iew.lsq.thread0.cacheBlocked       240680                       # Number of times an access to memory failed due to the cache being blocked
system.cpu0.iew.lsq.thread0.forwLoads        34345727                       # Number of loads that had data forwarded from stores
system.cpu0.iew.lsq.thread0.ignoredResponses        76212                       # Number of memory responses ignored because the instruction is squashed
system.cpu0.iew.lsq.thread0.invAddrLoads            0                       # Number of loads ignored due to an invalid address
system.cpu0.iew.lsq.thread0.invAddrSwpfs            0                       # Number of software prefetches ignored due to an invalid address
system.cpu0.iew.lsq.thread0.memOrderViolation        25777                       # Number of memory ordering violations
system.cpu0.iew.lsq.thread0.rescheduledLoads      8704482                       # Number of loads that were rescheduled
system.cpu0.iew.lsq.thread0.squashedLoads     64702688                       # Number of loads squashed
system.cpu0.iew.lsq.thread0.squashedStores     19669576                       # Number of stores squashed
system.cpu0.iew.memOrderViolationEvents         25777                       # Number of memory order violations
system.cpu0.iew.predictedNotTakenIncorrect      2441885                       # Number of branches that were predicted not taken incorrectly
system.cpu0.iew.predictedTakenIncorrect      14037745                       # Number of branches that were predicted taken incorrectly
system.cpu0.iew.wb_consumers                951552582                       # num instructions consuming a value
system.cpu0.iew.wb_count                   2306940983                       # cumulative count of insts written-back
system.cpu0.iew.wb_fanout                    0.892651                       # average fanout of values written-back
system.cpu0.iew.wb_producers                849403926                       # num instructions producing a value
system.cpu0.iew.wb_rate                      0.528470                       # insts written-back per cycle
system.cpu0.iew.wb_sent                    2307102725                       # cumulative count of insts sent to commit
system.cpu0.int_regfile_reads              2843792152                       # number of integer regfile reads
system.cpu0.int_regfile_writes             1475693786                       # number of integer regfile writes
system.cpu0.ipc                              0.509662                       # IPC: Instructions Per Cycle
system.cpu0.ipc_total                        0.509662                       # IPC: Total IPC of All Threads
system.cpu0.iq.FU_type_0::No_OpClass          7611924      0.33%      0.33% # Type of FU issued
system.cpu0.iq.FU_type_0::IntAlu           1293698215     55.29%     55.61% # Type of FU issued
system.cpu0.iq.FU_type_0::IntMult            18330399      0.78%     56.40% # Type of FU issued
system.cpu0.iq.FU_type_0::IntDiv              3802521      0.16%     56.56% # Type of FU issued
system.cpu0.iq.FU_type_0::FloatAdd                  0      0.00%     56.56% # Type of FU issued
system.cpu0.iq.FU_type_0::FloatCmp                  4      0.00%     56.56% # Type of FU issued
system.cpu0.iq.FU_type_0::FloatCvt                 12      0.00%     56.56% # Type of FU issued
system.cpu0.iq.FU_type_0::FloatMult                 0      0.00%     56.56% # Type of FU issued
system.cpu0.iq.FU_type_0::FloatMultAcc              0      0.00%     56.56% # Type of FU issued
system.cpu0.iq.FU_type_0::FloatDiv                  2      0.00%     56.56% # Type of FU issued
system.cpu0.iq.FU_type_0::FloatMisc                 4      0.00%     56.56% # Type of FU issued
system.cpu0.iq.FU_type_0::FloatSqrt                 0      0.00%     56.56% # Type of FU issued
system.cpu0.iq.FU_type_0::SimdAdd                   0      0.00%     56.56% # Type of FU issued
system.cpu0.iq.FU_type_0::SimdAddAcc                0      0.00%     56.56% # Type of FU issued
system.cpu0.iq.FU_type_0::SimdAlu                   0      0.00%     56.56% # Type of FU issued
system.cpu0.iq.FU_type_0::SimdCmp                   0      0.00%     56.56% # Type of FU issued
system.cpu0.iq.FU_type_0::SimdCvt                   0      0.00%     56.56% # Type of FU issued
system.cpu0.iq.FU_type_0::SimdMisc                  0      0.00%     56.56% # Type of FU issued
system.cpu0.iq.FU_type_0::SimdMult                  0      0.00%     56.56% # Type of FU issued
system.cpu0.iq.FU_type_0::SimdMultAcc               0      0.00%     56.56% # Type of FU issued
system.cpu0.iq.FU_type_0::SimdShift                 0      0.00%     56.56% # Type of FU issued
system.cpu0.iq.FU_type_0::SimdShiftAcc              0      0.00%     56.56% # Type of FU issued
system.cpu0.iq.FU_type_0::SimdDiv                   0      0.00%     56.56% # Type of FU issued
system.cpu0.iq.FU_type_0::SimdSqrt                  0      0.00%     56.56% # Type of FU issued
system.cpu0.iq.FU_type_0::SimdFloatAdd              0      0.00%     56.56% # Type of FU issued
system.cpu0.iq.FU_type_0::SimdFloatAlu              0      0.00%     56.56% # Type of FU issued
system.cpu0.iq.FU_type_0::SimdFloatCmp              0      0.00%     56.56% # Type of FU issued
system.cpu0.iq.FU_type_0::SimdFloatCvt              0      0.00%     56.56% # Type of FU issued
system.cpu0.iq.FU_type_0::SimdFloatDiv              0      0.00%     56.56% # Type of FU issued
system.cpu0.iq.FU_type_0::SimdFloatMisc             0      0.00%     56.56% # Type of FU issued
system.cpu0.iq.FU_type_0::SimdFloatMult             0      0.00%     56.56% # Type of FU issued
system.cpu0.iq.FU_type_0::SimdFloatMultAcc            0      0.00%     56.56% # Type of FU issued
system.cpu0.iq.FU_type_0::SimdFloatSqrt             0      0.00%     56.56% # Type of FU issued
system.cpu0.iq.FU_type_0::SimdReduceAdd             0      0.00%     56.56% # Type of FU issued
system.cpu0.iq.FU_type_0::SimdReduceAlu             0      0.00%     56.56% # Type of FU issued
system.cpu0.iq.FU_type_0::SimdReduceCmp             0      0.00%     56.56% # Type of FU issued
system.cpu0.iq.FU_type_0::SimdFloatReduceAdd            0      0.00%     56.56% # Type of FU issued
system.cpu0.iq.FU_type_0::SimdFloatReduceCmp            0      0.00%     56.56% # Type of FU issued
system.cpu0.iq.FU_type_0::SimdAes                   0      0.00%     56.56% # Type of FU issued
system.cpu0.iq.FU_type_0::SimdAesMix                0      0.00%     56.56% # Type of FU issued
system.cpu0.iq.FU_type_0::SimdSha1Hash              0      0.00%     56.56% # Type of FU issued
system.cpu0.iq.FU_type_0::SimdSha1Hash2             0      0.00%     56.56% # Type of FU issued
system.cpu0.iq.FU_type_0::SimdSha256Hash            0      0.00%     56.56% # Type of FU issued
system.cpu0.iq.FU_type_0::SimdSha256Hash2            0      0.00%     56.56% # Type of FU issued
system.cpu0.iq.FU_type_0::SimdShaSigma2             0      0.00%     56.56% # Type of FU issued
system.cpu0.iq.FU_type_0::SimdShaSigma3             0      0.00%     56.56% # Type of FU issued
system.cpu0.iq.FU_type_0::SimdPredAlu               0      0.00%     56.56% # Type of FU issued
system.cpu0.iq.FU_type_0::MemRead           742605962     31.74%     88.29% # Type of FU issued
system.cpu0.iq.FU_type_0::MemWrite          273920477     11.71%    100.00% # Type of FU issued
system.cpu0.iq.FU_type_0::FloatMemRead              8      0.00%    100.00% # Type of FU issued
system.cpu0.iq.FU_type_0::FloatMemWrite            16      0.00%    100.00% # Type of FU issued
system.cpu0.iq.FU_type_0::IprAccess                 0      0.00%    100.00% # Type of FU issued
system.cpu0.iq.FU_type_0::InstPrefetch              0      0.00%    100.00% # Type of FU issued
system.cpu0.iq.FU_type_0::total            2339969544                       # Type of FU issued
system.cpu0.iq.fp_alu_accesses                     48                       # Number of floating point alu accesses
system.cpu0.iq.fp_inst_queue_reads                 94                       # Number of floating instruction queue reads
system.cpu0.iq.fp_inst_queue_wakeup_accesses           46                       # Number of floating instruction queue wakeup accesses
system.cpu0.iq.fp_inst_queue_writes               622                       # Number of floating instruction queue writes
system.cpu0.iq.fu_busy_cnt                    4712717                       # FU busy when requested
system.cpu0.iq.fu_busy_rate                  0.002014                       # FU busy rate (busy events/executed inst)
system.cpu0.iq.fu_full::No_OpClass                  0      0.00%      0.00% # attempts to use FU when none available
system.cpu0.iq.fu_full::IntAlu                 791600     16.80%     16.80% # attempts to use FU when none available
system.cpu0.iq.fu_full::IntMult                     0      0.00%     16.80% # attempts to use FU when none available
system.cpu0.iq.fu_full::IntDiv                      0      0.00%     16.80% # attempts to use FU when none available
system.cpu0.iq.fu_full::FloatAdd                    0      0.00%     16.80% # attempts to use FU when none available
system.cpu0.iq.fu_full::FloatCmp                    0      0.00%     16.80% # attempts to use FU when none available
system.cpu0.iq.fu_full::FloatCvt                    0      0.00%     16.80% # attempts to use FU when none available
system.cpu0.iq.fu_full::FloatMult                   0      0.00%     16.80% # attempts to use FU when none available
system.cpu0.iq.fu_full::FloatMultAcc                0      0.00%     16.80% # attempts to use FU when none available
system.cpu0.iq.fu_full::FloatDiv                    0      0.00%     16.80% # attempts to use FU when none available
system.cpu0.iq.fu_full::FloatMisc                   0      0.00%     16.80% # attempts to use FU when none available
system.cpu0.iq.fu_full::FloatSqrt                   0      0.00%     16.80% # attempts to use FU when none available
system.cpu0.iq.fu_full::SimdAdd                     0      0.00%     16.80% # attempts to use FU when none available
system.cpu0.iq.fu_full::SimdAddAcc                  0      0.00%     16.80% # attempts to use FU when none available
system.cpu0.iq.fu_full::SimdAlu                     0      0.00%     16.80% # attempts to use FU when none available
system.cpu0.iq.fu_full::SimdCmp                     0      0.00%     16.80% # attempts to use FU when none available
system.cpu0.iq.fu_full::SimdCvt                     0      0.00%     16.80% # attempts to use FU when none available
system.cpu0.iq.fu_full::SimdMisc                    0      0.00%     16.80% # attempts to use FU when none available
system.cpu0.iq.fu_full::SimdMult                    0      0.00%     16.80% # attempts to use FU when none available
system.cpu0.iq.fu_full::SimdMultAcc                 0      0.00%     16.80% # attempts to use FU when none available
system.cpu0.iq.fu_full::SimdShift                   0      0.00%     16.80% # attempts to use FU when none available
system.cpu0.iq.fu_full::SimdShiftAcc                0      0.00%     16.80% # attempts to use FU when none available
system.cpu0.iq.fu_full::SimdDiv                     0      0.00%     16.80% # attempts to use FU when none available
system.cpu0.iq.fu_full::SimdSqrt                    0      0.00%     16.80% # attempts to use FU when none available
system.cpu0.iq.fu_full::SimdFloatAdd                0      0.00%     16.80% # attempts to use FU when none available
system.cpu0.iq.fu_full::SimdFloatAlu                0      0.00%     16.80% # attempts to use FU when none available
system.cpu0.iq.fu_full::SimdFloatCmp                0      0.00%     16.80% # attempts to use FU when none available
system.cpu0.iq.fu_full::SimdFloatCvt                0      0.00%     16.80% # attempts to use FU when none available
system.cpu0.iq.fu_full::SimdFloatDiv                0      0.00%     16.80% # attempts to use FU when none available
system.cpu0.iq.fu_full::SimdFloatMisc               0      0.00%     16.80% # attempts to use FU when none available
system.cpu0.iq.fu_full::SimdFloatMult               0      0.00%     16.80% # attempts to use FU when none available
system.cpu0.iq.fu_full::SimdFloatMultAcc            0      0.00%     16.80% # attempts to use FU when none available
system.cpu0.iq.fu_full::SimdFloatSqrt               0      0.00%     16.80% # attempts to use FU when none available
system.cpu0.iq.fu_full::SimdReduceAdd               0      0.00%     16.80% # attempts to use FU when none available
system.cpu0.iq.fu_full::SimdReduceAlu               0      0.00%     16.80% # attempts to use FU when none available
system.cpu0.iq.fu_full::SimdReduceCmp               0      0.00%     16.80% # attempts to use FU when none available
system.cpu0.iq.fu_full::SimdFloatReduceAdd            0      0.00%     16.80% # attempts to use FU when none available
system.cpu0.iq.fu_full::SimdFloatReduceCmp            0      0.00%     16.80% # attempts to use FU when none available
system.cpu0.iq.fu_full::SimdAes                     0      0.00%     16.80% # attempts to use FU when none available
system.cpu0.iq.fu_full::SimdAesMix                  0      0.00%     16.80% # attempts to use FU when none available
system.cpu0.iq.fu_full::SimdSha1Hash                0      0.00%     16.80% # attempts to use FU when none available
system.cpu0.iq.fu_full::SimdSha1Hash2               0      0.00%     16.80% # attempts to use FU when none available
system.cpu0.iq.fu_full::SimdSha256Hash              0      0.00%     16.80% # attempts to use FU when none available
system.cpu0.iq.fu_full::SimdSha256Hash2             0      0.00%     16.80% # attempts to use FU when none available
system.cpu0.iq.fu_full::SimdShaSigma2               0      0.00%     16.80% # attempts to use FU when none available
system.cpu0.iq.fu_full::SimdShaSigma3               0      0.00%     16.80% # attempts to use FU when none available
system.cpu0.iq.fu_full::SimdPredAlu                 0      0.00%     16.80% # attempts to use FU when none available
system.cpu0.iq.fu_full::MemRead               3454541     73.30%     90.10% # attempts to use FU when none available
system.cpu0.iq.fu_full::MemWrite               466574      9.90%    100.00% # attempts to use FU when none available
system.cpu0.iq.fu_full::FloatMemRead                0      0.00%    100.00% # attempts to use FU when none available
system.cpu0.iq.fu_full::FloatMemWrite               2      0.00%    100.00% # attempts to use FU when none available
system.cpu0.iq.fu_full::IprAccess                   0      0.00%    100.00% # attempts to use FU when none available
system.cpu0.iq.fu_full::InstPrefetch                0      0.00%    100.00% # attempts to use FU when none available
system.cpu0.iq.int_alu_accesses            2337070289                       # Number of integer alu accesses
system.cpu0.iq.int_inst_queue_reads        8761832746                       # Number of integer instruction queue reads
system.cpu0.iq.int_inst_queue_wakeup_accesses   2306940937                       # Number of integer instruction queue wakeup accesses
system.cpu0.iq.int_inst_queue_writes       2588680211                       # Number of integer instruction queue writes
system.cpu0.iq.iqInstsAdded                2383222435                       # Number of instructions added to the IQ (excludes non-spec)
system.cpu0.iq.iqInstsIssued               2339969544                       # Number of instructions issued
system.cpu0.iq.iqNonSpecInstsAdded           25427320                       # Number of non-speculative instructions added to the IQ
system.cpu0.iq.iqSquashedInstsExamined      180006680                       # Number of squashed instructions iterated over during squash; mainly for profiling
system.cpu0.iq.iqSquashedInstsIssued           280738                       # Number of squashed instructions issued
system.cpu0.iq.iqSquashedNonSpecRemoved      14007800                       # Number of squashed non-spec instructions that were removed
system.cpu0.iq.iqSquashedOperandsExamined    104319589                       # Number of squashed operands that are examined and possibly removed from graph
system.cpu0.iq.issued_per_cycle::samples   4076900298                       # Number of insts issued each cycle
system.cpu0.iq.issued_per_cycle::mean        0.573958                       # Number of insts issued each cycle
system.cpu0.iq.issued_per_cycle::stdev       0.797320                       # Number of insts issued each cycle
system.cpu0.iq.issued_per_cycle::underflows            0      0.00%      0.00% # Number of insts issued each cycle
system.cpu0.iq.issued_per_cycle::0         2369222594     58.11%     58.11% # Number of insts issued each cycle
system.cpu0.iq.issued_per_cycle::1         1193383547     29.27%     87.39% # Number of insts issued each cycle
system.cpu0.iq.issued_per_cycle::2          426968550     10.47%     97.86% # Number of insts issued each cycle
system.cpu0.iq.issued_per_cycle::3           68033356      1.67%     99.53% # Number of insts issued each cycle
system.cpu0.iq.issued_per_cycle::4           11575026      0.28%     99.81% # Number of insts issued each cycle
system.cpu0.iq.issued_per_cycle::5            5175895      0.13%     99.94% # Number of insts issued each cycle
system.cpu0.iq.issued_per_cycle::6            1714717      0.04%     99.98% # Number of insts issued each cycle
system.cpu0.iq.issued_per_cycle::7             531956      0.01%     99.99% # Number of insts issued each cycle
system.cpu0.iq.issued_per_cycle::8             294657      0.01%    100.00% # Number of insts issued each cycle
system.cpu0.iq.issued_per_cycle::overflows            0      0.00%    100.00% # Number of insts issued each cycle
system.cpu0.iq.issued_per_cycle::min_value            0                       # Number of insts issued each cycle
system.cpu0.iq.issued_per_cycle::max_value            8                       # Number of insts issued each cycle
system.cpu0.iq.issued_per_cycle::total     4076900298                       # Number of insts issued each cycle
system.cpu0.iq.rate                          0.536037                       # Inst issue rate
system.cpu0.iq.vec_alu_accesses                     0                       # Number of vector alu accesses
system.cpu0.iq.vec_inst_queue_reads                 0                       # Number of vector instruction queue reads
system.cpu0.iq.vec_inst_queue_wakeup_accesses            0                       # Number of vector instruction queue wakeup accesses
system.cpu0.iq.vec_inst_queue_writes                0                       # Number of vector instruction queue writes
system.cpu0.itb.accesses                            0                       # DTB accesses
system.cpu0.itb.hits                                0                       # DTB hits
system.cpu0.itb.misses                              0                       # DTB misses
system.cpu0.itb.read_accesses                       0                       # DTB read accesses
system.cpu0.itb.read_hits                           0                       # DTB read hits
system.cpu0.itb.read_misses                         0                       # DTB read misses
system.cpu0.itb.write_accesses                      0                       # DTB write accesses
system.cpu0.itb.write_hits                          0                       # DTB write hits
system.cpu0.itb.write_misses                        0                       # DTB write misses
system.cpu0.memDep0.conflictingLoads         58978928                       # Number of conflicting loads.
system.cpu0.memDep0.conflictingStores         9378394                       # Number of conflicting stores.
system.cpu0.memDep0.insertedLoads           756257715                       # Number of loads inserted to the mem dependence unit.
system.cpu0.memDep0.insertedStores          288239319                       # Number of stores inserted to the mem dependence unit.
system.cpu0.misc_regfile_reads                   2896                       # number of misc regfile reads
system.cpu0.misc_regfile_writes                    22                       # number of misc regfile writes
system.cpu0.numCycles                      4365316588                       # number of cpu cycles simulated
system.cpu0.numWorkItemsCompleted                   0                       # number of work items this cpu completed
system.cpu0.numWorkItemsStarted                     0                       # number of work items this cpu started
system.cpu0.quiesceCycles                     4935045                       # Total number of cycles that CPU has spent quiesced or waiting for an interrupt
system.cpu0.rename.BlockCycles              582375354                       # Number of cycles rename is blocking
system.cpu0.rename.CommittedMaps           1421350607                       # Number of HB maps that are committed
system.cpu0.rename.IQFullEvents              16510847                       # Number of times rename has blocked due to IQ full
system.cpu0.rename.IdleCycles              1711655019                       # Number of cycles rename is idle
system.cpu0.rename.LQFullEvents              32469707                       # Number of times rename has blocked due to LQ full
system.cpu0.rename.ROBFullEvents               127707                       # Number of times rename has blocked due to ROB full
system.cpu0.rename.RenameLookups           2970815045                       # Number of register rename lookups that rename has made
system.cpu0.rename.RenamedInsts            2431707999                       # Number of instructions processed by rename
system.cpu0.rename.RenamedOperands         1563801070                       # Number of destination operands rename has renamed
system.cpu0.rename.RunCycles               1680010398                       # Number of cycles rename is running
system.cpu0.rename.SQFullEvents              35092992                       # Number of times rename has blocked due to SQ full
system.cpu0.rename.SquashCycles              16307345                       # Number of cycles rename is squashing
system.cpu0.rename.UnblockCycles             86322592                       # Number of cycles rename is unblocking
system.cpu0.rename.UndoneMaps               142450455                       # Number of HB maps that are undone due to squashing
system.cpu0.rename.fp_rename_lookups               40                       # Number of floating rename lookups
system.cpu0.rename.int_rename_lookups      2970815005                       # Number of integer rename lookups
system.cpu0.rename.serializeStallCycles        229590                       # count of cycles rename stalled for serializing inst
system.cpu0.rename.serializingInsts              8944                       # count of serializing insts renamed
system.cpu0.rename.skidInsts                 39878215                       # count of insts added to the skid buffer
system.cpu0.rename.tempSerializingInsts          8943                       # count of temporary serializing insts renamed
system.cpu0.rob.rob_reads                  6389266741                       # The number of ROB reads
system.cpu0.rob.rob_writes                 4851322637                       # The number of ROB writes
system.cpu0.timesIdled                       54093040                       # Number of times that the entire CPU went into an idle state and unscheduled itself
system.cpu0.workload.numSyscalls                 2863                       # Number of system calls
system.cpu1.branchPred.BTBCorrect                   0                       # Number of correct BTB predictions (this stat may not work properly.
system.cpu1.branchPred.BTBHitPct            89.240488                       # BTB Hit Percentage
system.cpu1.branchPred.BTBHits               18078156                       # Number of BTB hits
system.cpu1.branchPred.BTBLookups            20257796                       # Number of BTB lookups
system.cpu1.branchPred.RASInCorrect                 0                       # Number of incorrect RAS predictions.
system.cpu1.branchPred.condIncorrect          1788975                       # Number of conditional branches incorrect
system.cpu1.branchPred.condPredicted         32779972                       # Number of conditional branches predicted
system.cpu1.branchPred.indirectHits            919375                       # Number of indirect target hits.
system.cpu1.branchPred.indirectLookups         930776                       # Number of indirect predictor lookups.
system.cpu1.branchPred.indirectMisses           11401                       # Number of indirect misses.
system.cpu1.branchPred.lookups               35971581                       # Number of BP lookups
system.cpu1.branchPred.usedRAS                      0                       # Number of times the RAS was used to get a target.
system.cpu1.branchPredindirectMispredicted        46901                       # Number of mispredicted indirect branches.
system.cpu1.commit.amos                       3801570                       # Number of atomic instructions committed
system.cpu1.commit.branchMispredicts          1388059                       # The number of times a branch was mispredicted
system.cpu1.commit.branches                  29517756                       # Number of branches committed
system.cpu1.commit.bw_lim_events              3263133                       # number cycles where commit BW limit reached
system.cpu1.commit.commitNonSpecStalls       11405392                       # The number of times commit has been forced to stall to communicate backwards
system.cpu1.commit.commitSquashedInsts       15311117                       # The number of squashed insts skipped by commit
system.cpu1.commit.committedInsts           130069884                       # Number of instructions committed
system.cpu1.commit.committedOps             133871634                       # Number of ops (including micro ops) committed
system.cpu1.commit.committed_per_cycle::samples    720055876                       # Number of insts commited each cycle
system.cpu1.commit.committed_per_cycle::mean     0.185918                       # Number of insts commited each cycle
system.cpu1.commit.committed_per_cycle::stdev     0.854598                       # Number of insts commited each cycle
system.cpu1.commit.committed_per_cycle::underflows            0      0.00%      0.00% # Number of insts commited each cycle
system.cpu1.commit.committed_per_cycle::0    665361812     92.40%     92.40% # Number of insts commited each cycle
system.cpu1.commit.committed_per_cycle::1     26904805      3.74%     96.14% # Number of insts commited each cycle
system.cpu1.commit.committed_per_cycle::2      8523116      1.18%     97.32% # Number of insts commited each cycle
system.cpu1.commit.committed_per_cycle::3      8916671      1.24%     98.56% # Number of insts commited each cycle
system.cpu1.commit.committed_per_cycle::4      2497174      0.35%     98.91% # Number of insts commited each cycle
system.cpu1.commit.committed_per_cycle::5       738604      0.10%     99.01% # Number of insts commited each cycle
system.cpu1.commit.committed_per_cycle::6      3570123      0.50%     99.51% # Number of insts commited each cycle
system.cpu1.commit.committed_per_cycle::7       280438      0.04%     99.55% # Number of insts commited each cycle
system.cpu1.commit.committed_per_cycle::8      3263133      0.45%    100.00% # Number of insts commited each cycle
system.cpu1.commit.committed_per_cycle::overflows            0      0.00%    100.00% # Number of insts commited each cycle
system.cpu1.commit.committed_per_cycle::min_value            0                       # Number of insts commited each cycle
system.cpu1.commit.committed_per_cycle::max_value            8                       # Number of insts commited each cycle
system.cpu1.commit.committed_per_cycle::total    720055876                       # Number of insts commited each cycle
system.cpu1.commit.fp_insts                        12                       # Number of committed floating point instructions.
system.cpu1.commit.function_calls             1457205                       # Number of function calls committed.
system.cpu1.commit.int_insts                125275783                       # Number of committed integer instructions.
system.cpu1.commit.loads                     36890514                       # Number of loads committed
system.cpu1.commit.membars                    7603264                       # Number of memory barriers committed
system.cpu1.commit.op_class_0::No_OpClass      7603264      5.68%      5.68% # Class of committed instruction
system.cpu1.commit.op_class_0::IntAlu        77453269     57.86%     63.54% # Class of committed instruction
system.cpu1.commit.op_class_0::IntMult             44      0.00%     63.54% # Class of committed instruction
system.cpu1.commit.op_class_0::IntDiv              88      0.00%     63.54% # Class of committed instruction
system.cpu1.commit.op_class_0::FloatAdd             0      0.00%     63.54% # Class of committed instruction
system.cpu1.commit.op_class_0::FloatCmp             0      0.00%     63.54% # Class of committed instruction
system.cpu1.commit.op_class_0::FloatCvt             0      0.00%     63.54% # Class of committed instruction
system.cpu1.commit.op_class_0::FloatMult            0      0.00%     63.54% # Class of committed instruction
system.cpu1.commit.op_class_0::FloatMultAcc            0      0.00%     63.54% # Class of committed instruction
system.cpu1.commit.op_class_0::FloatDiv             0      0.00%     63.54% # Class of committed instruction
system.cpu1.commit.op_class_0::FloatMisc            0      0.00%     63.54% # Class of committed instruction
system.cpu1.commit.op_class_0::FloatSqrt            0      0.00%     63.54% # Class of committed instruction
system.cpu1.commit.op_class_0::SimdAdd              0      0.00%     63.54% # Class of committed instruction
system.cpu1.commit.op_class_0::SimdAddAcc            0      0.00%     63.54% # Class of committed instruction
system.cpu1.commit.op_class_0::SimdAlu              0      0.00%     63.54% # Class of committed instruction
system.cpu1.commit.op_class_0::SimdCmp              0      0.00%     63.54% # Class of committed instruction
system.cpu1.commit.op_class_0::SimdCvt              0      0.00%     63.54% # Class of committed instruction
system.cpu1.commit.op_class_0::SimdMisc             0      0.00%     63.54% # Class of committed instruction
system.cpu1.commit.op_class_0::SimdMult             0      0.00%     63.54% # Class of committed instruction
system.cpu1.commit.op_class_0::SimdMultAcc            0      0.00%     63.54% # Class of committed instruction
system.cpu1.commit.op_class_0::SimdShift            0      0.00%     63.54% # Class of committed instruction
system.cpu1.commit.op_class_0::SimdShiftAcc            0      0.00%     63.54% # Class of committed instruction
system.cpu1.commit.op_class_0::SimdDiv              0      0.00%     63.54% # Class of committed instruction
system.cpu1.commit.op_class_0::SimdSqrt             0      0.00%     63.54% # Class of committed instruction
system.cpu1.commit.op_class_0::SimdFloatAdd            0      0.00%     63.54% # Class of committed instruction
system.cpu1.commit.op_class_0::SimdFloatAlu            0      0.00%     63.54% # Class of committed instruction
system.cpu1.commit.op_class_0::SimdFloatCmp            0      0.00%     63.54% # Class of committed instruction
system.cpu1.commit.op_class_0::SimdFloatCvt            0      0.00%     63.54% # Class of committed instruction
system.cpu1.commit.op_class_0::SimdFloatDiv            0      0.00%     63.54% # Class of committed instruction
system.cpu1.commit.op_class_0::SimdFloatMisc            0      0.00%     63.54% # Class of committed instruction
system.cpu1.commit.op_class_0::SimdFloatMult            0      0.00%     63.54% # Class of committed instruction
system.cpu1.commit.op_class_0::SimdFloatMultAcc            0      0.00%     63.54% # Class of committed instruction
system.cpu1.commit.op_class_0::SimdFloatSqrt            0      0.00%     63.54% # Class of committed instruction
system.cpu1.commit.op_class_0::SimdReduceAdd            0      0.00%     63.54% # Class of committed instruction
system.cpu1.commit.op_class_0::SimdReduceAlu            0      0.00%     63.54% # Class of committed instruction
system.cpu1.commit.op_class_0::SimdReduceCmp            0      0.00%     63.54% # Class of committed instruction
system.cpu1.commit.op_class_0::SimdFloatReduceAdd            0      0.00%     63.54% # Class of committed instruction
system.cpu1.commit.op_class_0::SimdFloatReduceCmp            0      0.00%     63.54% # Class of committed instruction
system.cpu1.commit.op_class_0::SimdAes              0      0.00%     63.54% # Class of committed instruction
system.cpu1.commit.op_class_0::SimdAesMix            0      0.00%     63.54% # Class of committed instruction
system.cpu1.commit.op_class_0::SimdSha1Hash            0      0.00%     63.54% # Class of committed instruction
system.cpu1.commit.op_class_0::SimdSha1Hash2            0      0.00%     63.54% # Class of committed instruction
system.cpu1.commit.op_class_0::SimdSha256Hash            0      0.00%     63.54% # Class of committed instruction
system.cpu1.commit.op_class_0::SimdSha256Hash2            0      0.00%     63.54% # Class of committed instruction
system.cpu1.commit.op_class_0::SimdShaSigma2            0      0.00%     63.54% # Class of committed instruction
system.cpu1.commit.op_class_0::SimdShaSigma3            0      0.00%     63.54% # Class of committed instruction
system.cpu1.commit.op_class_0::SimdPredAlu            0      0.00%     63.54% # Class of committed instruction
system.cpu1.commit.op_class_0::MemRead       40692084     30.40%     93.93% # Class of committed instruction
system.cpu1.commit.op_class_0::MemWrite       8122873      6.07%    100.00% # Class of committed instruction
system.cpu1.commit.op_class_0::FloatMemRead            0      0.00%    100.00% # Class of committed instruction
system.cpu1.commit.op_class_0::FloatMemWrite           12      0.00%    100.00% # Class of committed instruction
system.cpu1.commit.op_class_0::IprAccess            0      0.00%    100.00% # Class of committed instruction
system.cpu1.commit.op_class_0::InstPrefetch            0      0.00%    100.00% # Class of committed instruction
system.cpu1.commit.op_class_0::total        133871634                       # Class of committed instruction
system.cpu1.commit.refs                      48814969                       # Number of memory references committed
system.cpu1.commit.swp_count                        0                       # Number of s/w prefetches committed
system.cpu1.commit.vec_insts                        0                       # Number of committed Vector instructions.
system.cpu1.committedInsts                  130069884                       # Number of Instructions Simulated
system.cpu1.committedOps                    133871634                       # Number of Ops (including micro ops) Simulated
system.cpu1.cpi                              5.565709                       # CPI: Cycles Per Instruction
system.cpu1.cpi_total                        5.565709                       # CPI: Total CPI of All Threads
system.cpu1.decode.BlockedCycles            644224019                       # Number of cycles decode is blocked
system.cpu1.decode.BranchMispred               418142                       # Number of times decode detected a branch misprediction
system.cpu1.decode.BranchResolved            17326655                       # Number of times decode resolved a branch
system.cpu1.decode.DecodedInsts             155007027                       # Number of instructions handled by decode
system.cpu1.decode.IdleCycles                17906229                       # Number of cycles decode is idle
system.cpu1.decode.RunCycles                 50629272                       # Number of cycles decode is running
system.cpu1.decode.SquashCycles               1389464                       # Number of cycles decode is squashing
system.cpu1.decode.SquashedInsts              1130520                       # Number of squashed instructions handled by decode
system.cpu1.decode.UnblockCycles              8773375                       # Number of cycles decode is unblocking
system.cpu1.dtb.accesses                            0                       # DTB accesses
system.cpu1.dtb.hits                                0                       # DTB hits
system.cpu1.dtb.misses                              0                       # DTB misses
system.cpu1.dtb.read_accesses                       0                       # DTB read accesses
system.cpu1.dtb.read_hits                           0                       # DTB read hits
system.cpu1.dtb.read_misses                         0                       # DTB read misses
system.cpu1.dtb.write_accesses                      0                       # DTB write accesses
system.cpu1.dtb.write_hits                          0                       # DTB write hits
system.cpu1.dtb.write_misses                        0                       # DTB write misses
system.cpu1.fetch.Branches                   35971581                       # Number of branches that fetch encountered
system.cpu1.fetch.CacheLines                 19839969                       # Number of cache lines fetched
system.cpu1.fetch.Cycles                    700045348                       # Number of cycles fetch has run and was not squashing or blocked
system.cpu1.fetch.IcacheSquashes               147511                       # Number of outstanding Icache misses that were squashed
system.cpu1.fetch.Insts                     156721366                       # Number of instructions fetch has processed
system.cpu1.fetch.MiscStallCycles                   1                       # Number of cycles fetch has spent waiting on interrupts, or bad addresses, or out of MSHRs
system.cpu1.fetch.SquashCycles                3580760                       # Number of cycles fetch has spent squashing
system.cpu1.fetch.branchRate                 0.049689                       # Number of branch fetches per cycle
system.cpu1.fetch.icacheStallCycles          21086630                       # Number of cycles fetch is stalled on an Icache miss
system.cpu1.fetch.predictedBranches          18997531                       # Number of branches that fetch has predicted taken
system.cpu1.fetch.rate                       0.216487                       # Number of inst fetches per cycle
system.cpu1.fetch.rateDist::samples         722922359                       # Number of instructions fetched each cycle (Total)
system.cpu1.fetch.rateDist::mean             0.222048                       # Number of instructions fetched each cycle (Total)
system.cpu1.fetch.rateDist::stdev            0.658845                       # Number of instructions fetched each cycle (Total)
system.cpu1.fetch.rateDist::underflows              0      0.00%      0.00% # Number of instructions fetched each cycle (Total)
system.cpu1.fetch.rateDist::0               626694696     86.69%     86.69% # Number of instructions fetched each cycle (Total)
system.cpu1.fetch.rateDist::1                54726124      7.57%     94.26% # Number of instructions fetched each cycle (Total)
system.cpu1.fetch.rateDist::2                25280626      3.50%     97.76% # Number of instructions fetched each cycle (Total)
system.cpu1.fetch.rateDist::3                10376244      1.44%     99.19% # Number of instructions fetched each cycle (Total)
system.cpu1.fetch.rateDist::4                 5183631      0.72%     99.91% # Number of instructions fetched each cycle (Total)
system.cpu1.fetch.rateDist::5                  595086      0.08%     99.99% # Number of instructions fetched each cycle (Total)
system.cpu1.fetch.rateDist::6                   65015      0.01%    100.00% # Number of instructions fetched each cycle (Total)
system.cpu1.fetch.rateDist::7                     184      0.00%    100.00% # Number of instructions fetched each cycle (Total)
system.cpu1.fetch.rateDist::8                     753      0.00%    100.00% # Number of instructions fetched each cycle (Total)
system.cpu1.fetch.rateDist::overflows               0      0.00%    100.00% # Number of instructions fetched each cycle (Total)
system.cpu1.fetch.rateDist::min_value               0                       # Number of instructions fetched each cycle (Total)
system.cpu1.fetch.rateDist::max_value               8                       # Number of instructions fetched each cycle (Total)
system.cpu1.fetch.rateDist::total           722922359                       # Number of instructions fetched each cycle (Total)
system.cpu1.fp_regfile_reads                       12                       # number of floating regfile reads
system.cpu1.idleCycles                        1008793                       # Total number of cycles that the CPU has spent unscheduled due to idling
system.cpu1.iew.branchMispredicts             1512091                       # Number of branch mispredicts detected at execute
system.cpu1.iew.exec_branches                31642874                       # Number of branches executed
system.cpu1.iew.exec_nop                            0                       # number of nop insts executed
system.cpu1.iew.exec_rate                    0.199760                       # Inst execution rate
system.cpu1.iew.exec_refs                    52132060                       # number of memory reference insts executed
system.cpu1.iew.exec_stores                  12360095                       # Number of stores executed
system.cpu1.iew.exec_swp                            0                       # number of swp insts executed
system.cpu1.iew.iewBlockCycles              546632148                       # Number of cycles IEW is blocking
system.cpu1.iew.iewDispLoadInsts             40271705                       # Number of dispatched load instructions
system.cpu1.iew.iewDispNonSpecInsts           3802267                       # Number of dispatched non-speculative instructions
system.cpu1.iew.iewDispSquashedInsts          1201226                       # Number of squashed instructions skipped by dispatch
system.cpu1.iew.iewDispStoreInsts            12697040                       # Number of dispatched store instructions
system.cpu1.iew.iewDispatchedInsts          149167530                       # Number of instructions dispatched to IQ
system.cpu1.iew.iewExecLoadInsts             39771965                       # Number of load instructions executed
system.cpu1.iew.iewExecSquashedInsts          1522502                       # Number of squashed instructions skipped in execute
system.cpu1.iew.iewExecutedInsts            144612477                       # Number of executed instructions
system.cpu1.iew.iewIQFullEvents               2319369                       # Number of times the IQ has become full, causing a stall
system.cpu1.iew.iewIdleCycles                       0                       # Number of cycles IEW is idle
system.cpu1.iew.iewLSQFullEvents              6004824                       # Number of times the LSQ has become full, causing a stall
system.cpu1.iew.iewSquashCycles               1389464                       # Number of cycles IEW is squashing
system.cpu1.iew.iewUnblockCycles             12894619                       # Number of cycles IEW is unblocking
system.cpu1.iew.lsq.thread0.blockedLoads            0                       # Number of blocked loads due to partial load-store forwarding
system.cpu1.iew.lsq.thread0.cacheBlocked        64947                       # Number of times an access to memory failed due to the cache being blocked
system.cpu1.iew.lsq.thread0.forwLoads         1101292                       # Number of loads that had data forwarded from stores
system.cpu1.iew.lsq.thread0.ignoredResponses        34019                       # Number of memory responses ignored because the instruction is squashed
system.cpu1.iew.lsq.thread0.invAddrLoads            0                       # Number of loads ignored due to an invalid address
system.cpu1.iew.lsq.thread0.invAddrSwpfs            0                       # Number of software prefetches ignored due to an invalid address
system.cpu1.iew.lsq.thread0.memOrderViolation         1670                       # Number of memory ordering violations
system.cpu1.iew.lsq.thread0.rescheduledLoads         5392                       # Number of loads that were rescheduled
system.cpu1.iew.lsq.thread0.squashedLoads      3381191                       # Number of loads squashed
system.cpu1.iew.lsq.thread0.squashedStores       772585                       # Number of stores squashed
system.cpu1.iew.memOrderViolationEvents          1670                       # Number of memory order violations
system.cpu1.iew.predictedNotTakenIncorrect       517427                       # Number of branches that were predicted not taken incorrectly
system.cpu1.iew.predictedTakenIncorrect        994664                       # Number of branches that were predicted taken incorrectly
system.cpu1.iew.wb_consumers                 83067149                       # num instructions consuming a value
system.cpu1.iew.wb_count                    143504661                       # cumulative count of insts written-back
system.cpu1.iew.wb_fanout                    0.855183                       # average fanout of values written-back
system.cpu1.iew.wb_producers                 71037626                       # num instructions producing a value
system.cpu1.iew.wb_rate                      0.198230                       # insts written-back per cycle
system.cpu1.iew.wb_sent                     143548509                       # cumulative count of insts sent to commit
system.cpu1.int_regfile_reads               179832755                       # number of integer regfile reads
system.cpu1.int_regfile_writes               96517276                       # number of integer regfile writes
system.cpu1.ipc                              0.179672                       # IPC: Instructions Per Cycle
system.cpu1.ipc_total                        0.179672                       # IPC: Total IPC of All Threads
system.cpu1.iq.FU_type_0::No_OpClass          7603370      5.20%      5.20% # Type of FU issued
system.cpu1.iq.FU_type_0::IntAlu             85967128     58.83%     64.03% # Type of FU issued
system.cpu1.iq.FU_type_0::IntMult                  46      0.00%     64.03% # Type of FU issued
system.cpu1.iq.FU_type_0::IntDiv                   90      0.00%     64.03% # Type of FU issued
system.cpu1.iq.FU_type_0::FloatAdd                  0      0.00%     64.03% # Type of FU issued
system.cpu1.iq.FU_type_0::FloatCmp                  0      0.00%     64.03% # Type of FU issued
system.cpu1.iq.FU_type_0::FloatCvt                  0      0.00%     64.03% # Type of FU issued
system.cpu1.iq.FU_type_0::FloatMult                 0      0.00%     64.03% # Type of FU issued
system.cpu1.iq.FU_type_0::FloatMultAcc              0      0.00%     64.03% # Type of FU issued
system.cpu1.iq.FU_type_0::FloatDiv                  0      0.00%     64.03% # Type of FU issued
system.cpu1.iq.FU_type_0::FloatMisc                 0      0.00%     64.03% # Type of FU issued
system.cpu1.iq.FU_type_0::FloatSqrt                 0      0.00%     64.03% # Type of FU issued
system.cpu1.iq.FU_type_0::SimdAdd                   0      0.00%     64.03% # Type of FU issued
system.cpu1.iq.FU_type_0::SimdAddAcc                0      0.00%     64.03% # Type of FU issued
system.cpu1.iq.FU_type_0::SimdAlu                   0      0.00%     64.03% # Type of FU issued
system.cpu1.iq.FU_type_0::SimdCmp                   0      0.00%     64.03% # Type of FU issued
system.cpu1.iq.FU_type_0::SimdCvt                   0      0.00%     64.03% # Type of FU issued
system.cpu1.iq.FU_type_0::SimdMisc                  0      0.00%     64.03% # Type of FU issued
system.cpu1.iq.FU_type_0::SimdMult                  0      0.00%     64.03% # Type of FU issued
system.cpu1.iq.FU_type_0::SimdMultAcc               0      0.00%     64.03% # Type of FU issued
system.cpu1.iq.FU_type_0::SimdShift                 0      0.00%     64.03% # Type of FU issued
system.cpu1.iq.FU_type_0::SimdShiftAcc              0      0.00%     64.03% # Type of FU issued
system.cpu1.iq.FU_type_0::SimdDiv                   0      0.00%     64.03% # Type of FU issued
system.cpu1.iq.FU_type_0::SimdSqrt                  0      0.00%     64.03% # Type of FU issued
system.cpu1.iq.FU_type_0::SimdFloatAdd              0      0.00%     64.03% # Type of FU issued
system.cpu1.iq.FU_type_0::SimdFloatAlu              0      0.00%     64.03% # Type of FU issued
system.cpu1.iq.FU_type_0::SimdFloatCmp              0      0.00%     64.03% # Type of FU issued
system.cpu1.iq.FU_type_0::SimdFloatCvt              0      0.00%     64.03% # Type of FU issued
system.cpu1.iq.FU_type_0::SimdFloatDiv              0      0.00%     64.03% # Type of FU issued
system.cpu1.iq.FU_type_0::SimdFloatMisc             0      0.00%     64.03% # Type of FU issued
system.cpu1.iq.FU_type_0::SimdFloatMult             0      0.00%     64.03% # Type of FU issued
system.cpu1.iq.FU_type_0::SimdFloatMultAcc            0      0.00%     64.03% # Type of FU issued
system.cpu1.iq.FU_type_0::SimdFloatSqrt             0      0.00%     64.03% # Type of FU issued
system.cpu1.iq.FU_type_0::SimdReduceAdd             0      0.00%     64.03% # Type of FU issued
system.cpu1.iq.FU_type_0::SimdReduceAlu             0      0.00%     64.03% # Type of FU issued
system.cpu1.iq.FU_type_0::SimdReduceCmp             0      0.00%     64.03% # Type of FU issued
system.cpu1.iq.FU_type_0::SimdFloatReduceAdd            0      0.00%     64.03% # Type of FU issued
system.cpu1.iq.FU_type_0::SimdFloatReduceCmp            0      0.00%     64.03% # Type of FU issued
system.cpu1.iq.FU_type_0::SimdAes                   0      0.00%     64.03% # Type of FU issued
system.cpu1.iq.FU_type_0::SimdAesMix                0      0.00%     64.03% # Type of FU issued
system.cpu1.iq.FU_type_0::SimdSha1Hash              0      0.00%     64.03% # Type of FU issued
system.cpu1.iq.FU_type_0::SimdSha1Hash2             0      0.00%     64.03% # Type of FU issued
system.cpu1.iq.FU_type_0::SimdSha256Hash            0      0.00%     64.03% # Type of FU issued
system.cpu1.iq.FU_type_0::SimdSha256Hash2            0      0.00%     64.03% # Type of FU issued
system.cpu1.iq.FU_type_0::SimdShaSigma2             0      0.00%     64.03% # Type of FU issued
system.cpu1.iq.FU_type_0::SimdShaSigma3             0      0.00%     64.03% # Type of FU issued
system.cpu1.iq.FU_type_0::SimdPredAlu               0      0.00%     64.03% # Type of FU issued
system.cpu1.iq.FU_type_0::MemRead            43952208     30.08%     94.11% # Type of FU issued
system.cpu1.iq.FU_type_0::MemWrite            8612125      5.89%    100.00% # Type of FU issued
system.cpu1.iq.FU_type_0::FloatMemRead              0      0.00%    100.00% # Type of FU issued
system.cpu1.iq.FU_type_0::FloatMemWrite            12      0.00%    100.00% # Type of FU issued
system.cpu1.iq.FU_type_0::IprAccess                 0      0.00%    100.00% # Type of FU issued
system.cpu1.iq.FU_type_0::InstPrefetch              0      0.00%    100.00% # Type of FU issued
system.cpu1.iq.FU_type_0::total             146134979                       # Type of FU issued
system.cpu1.iq.fp_alu_accesses                     14                       # Number of floating point alu accesses
system.cpu1.iq.fp_inst_queue_reads                 26                       # Number of floating instruction queue reads
system.cpu1.iq.fp_inst_queue_wakeup_accesses           12                       # Number of floating instruction queue wakeup accesses
system.cpu1.iq.fp_inst_queue_writes                12                       # Number of floating instruction queue writes
system.cpu1.iq.fu_busy_cnt                    4161778                       # FU busy when requested
system.cpu1.iq.fu_busy_rate                  0.028479                       # FU busy rate (busy events/executed inst)
system.cpu1.iq.fu_full::No_OpClass                  0      0.00%      0.00% # attempts to use FU when none available
system.cpu1.iq.fu_full::IntAlu                 717127     17.23%     17.23% # attempts to use FU when none available
system.cpu1.iq.fu_full::IntMult                     0      0.00%     17.23% # attempts to use FU when none available
system.cpu1.iq.fu_full::IntDiv                      0      0.00%     17.23% # attempts to use FU when none available
system.cpu1.iq.fu_full::FloatAdd                    0      0.00%     17.23% # attempts to use FU when none available
system.cpu1.iq.fu_full::FloatCmp                    0      0.00%     17.23% # attempts to use FU when none available
system.cpu1.iq.fu_full::FloatCvt                    0      0.00%     17.23% # attempts to use FU when none available
system.cpu1.iq.fu_full::FloatMult                   0      0.00%     17.23% # attempts to use FU when none available
system.cpu1.iq.fu_full::FloatMultAcc                0      0.00%     17.23% # attempts to use FU when none available
system.cpu1.iq.fu_full::FloatDiv                    0      0.00%     17.23% # attempts to use FU when none available
system.cpu1.iq.fu_full::FloatMisc                   0      0.00%     17.23% # attempts to use FU when none available
system.cpu1.iq.fu_full::FloatSqrt                   0      0.00%     17.23% # attempts to use FU when none available
system.cpu1.iq.fu_full::SimdAdd                     0      0.00%     17.23% # attempts to use FU when none available
system.cpu1.iq.fu_full::SimdAddAcc                  0      0.00%     17.23% # attempts to use FU when none available
system.cpu1.iq.fu_full::SimdAlu                     0      0.00%     17.23% # attempts to use FU when none available
system.cpu1.iq.fu_full::SimdCmp                     0      0.00%     17.23% # attempts to use FU when none available
system.cpu1.iq.fu_full::SimdCvt                     0      0.00%     17.23% # attempts to use FU when none available
system.cpu1.iq.fu_full::SimdMisc                    0      0.00%     17.23% # attempts to use FU when none available
system.cpu1.iq.fu_full::SimdMult                    0      0.00%     17.23% # attempts to use FU when none available
system.cpu1.iq.fu_full::SimdMultAcc                 0      0.00%     17.23% # attempts to use FU when none available
system.cpu1.iq.fu_full::SimdShift                   0      0.00%     17.23% # attempts to use FU when none available
system.cpu1.iq.fu_full::SimdShiftAcc                0      0.00%     17.23% # attempts to use FU when none available
system.cpu1.iq.fu_full::SimdDiv                     0      0.00%     17.23% # attempts to use FU when none available
system.cpu1.iq.fu_full::SimdSqrt                    0      0.00%     17.23% # attempts to use FU when none available
system.cpu1.iq.fu_full::SimdFloatAdd                0      0.00%     17.23% # attempts to use FU when none available
system.cpu1.iq.fu_full::SimdFloatAlu                0      0.00%     17.23% # attempts to use FU when none available
system.cpu1.iq.fu_full::SimdFloatCmp                0      0.00%     17.23% # attempts to use FU when none available
system.cpu1.iq.fu_full::SimdFloatCvt                0      0.00%     17.23% # attempts to use FU when none available
system.cpu1.iq.fu_full::SimdFloatDiv                0      0.00%     17.23% # attempts to use FU when none available
system.cpu1.iq.fu_full::SimdFloatMisc               0      0.00%     17.23% # attempts to use FU when none available
system.cpu1.iq.fu_full::SimdFloatMult               0      0.00%     17.23% # attempts to use FU when none available
system.cpu1.iq.fu_full::SimdFloatMultAcc            0      0.00%     17.23% # attempts to use FU when none available
system.cpu1.iq.fu_full::SimdFloatSqrt               0      0.00%     17.23% # attempts to use FU when none available
system.cpu1.iq.fu_full::SimdReduceAdd               0      0.00%     17.23% # attempts to use FU when none available
system.cpu1.iq.fu_full::SimdReduceAlu               0      0.00%     17.23% # attempts to use FU when none available
system.cpu1.iq.fu_full::SimdReduceCmp               0      0.00%     17.23% # attempts to use FU when none available
system.cpu1.iq.fu_full::SimdFloatReduceAdd            0      0.00%     17.23% # attempts to use FU when none available
system.cpu1.iq.fu_full::SimdFloatReduceCmp            0      0.00%     17.23% # attempts to use FU when none available
system.cpu1.iq.fu_full::SimdAes                     0      0.00%     17.23% # attempts to use FU when none available
system.cpu1.iq.fu_full::SimdAesMix                  0      0.00%     17.23% # attempts to use FU when none available
system.cpu1.iq.fu_full::SimdSha1Hash                0      0.00%     17.23% # attempts to use FU when none available
system.cpu1.iq.fu_full::SimdSha1Hash2               0      0.00%     17.23% # attempts to use FU when none available
system.cpu1.iq.fu_full::SimdSha256Hash              0      0.00%     17.23% # attempts to use FU when none available
system.cpu1.iq.fu_full::SimdSha256Hash2             0      0.00%     17.23% # attempts to use FU when none available
system.cpu1.iq.fu_full::SimdShaSigma2               0      0.00%     17.23% # attempts to use FU when none available
system.cpu1.iq.fu_full::SimdShaSigma3               0      0.00%     17.23% # attempts to use FU when none available
system.cpu1.iq.fu_full::SimdPredAlu                 0      0.00%     17.23% # attempts to use FU when none available
system.cpu1.iq.fu_full::MemRead               3089848     74.24%     91.47% # attempts to use FU when none available
system.cpu1.iq.fu_full::MemWrite               354801      8.53%    100.00% # attempts to use FU when none available
[...]
system.cpu1.dcache.ReadReq_avg_miss_latency::.cpu1.data 86517.995124                       # average ReadReq miss latency
system.cpu1.dcache.ReadReq_avg_miss_latency::total 86517.995124                       # average ReadReq miss latency
system.cpu1.dcache.ReadReq_mshr_hits::.cpu1.data      8929088                       # number of ReadReq MSHR hits
system.cpu1.dcache.ReadReq_mshr_hits::total      8929088                       # number of ReadReq MSHR hits
system.cpu1.dcache.ReadReq_mshr_misses::.cpu1.data      8069961                       # number of ReadReq MSHR misses
system.cpu1.dcache.ReadReq_mshr_misses::total      8069961                       # number of ReadReq MSHR misses
system.cpu1.dcache.ReadReq_mshr_miss_latency::.cpu1.data 824720523000                       # number of ReadReq MSHR miss cycles
system.cpu1.dcache.ReadReq_mshr_miss_latency::total 824720523000                       # number of ReadReq MSHR miss cycles
system.cpu1.dcache.ReadReq_mshr_miss_rate::.cpu1.data     0.104668                       # mshr miss rate for ReadReq accesses
system.cpu1.dcache.ReadReq_mshr_miss_rate::total     0.104668                       # mshr miss rate for ReadReq accesses
system.cpu1.dcache.ReadReq_avg_mshr_miss_latency::.cpu1.data 102196.345559                       # average ReadReq mshr miss latency
system.cpu1.dcache.ReadReq_avg_mshr_miss_latency::total 102196.345559                       # average ReadReq mshr miss latency
system.cpu1.dcache.WriteReq_hits::.cpu1.data      2737897                       # number of WriteReq hits
system.cpu1.dcache.WriteReq_hits::total       2737897                       # number of WriteReq hits
system.cpu1.dcache.WriteReq_misses::.cpu1.data       969471                       # number of WriteReq misses
system.cpu1.dcache.WriteReq_misses::total       969471                       # number of WriteReq misses
system.cpu1.dcache.WriteReq_miss_latency::.cpu1.data  70065025217                       # number of WriteReq miss cycles
system.cpu1.dcache.WriteReq_miss_latency::total  70065025217                       # number of WriteReq miss cycles
system.cpu1.dcache.WriteReq_accesses::.cpu1.data      3707368                       # number of WriteReq accesses(hits+misses)
system.cpu1.dcache.WriteReq_accesses::total      3707368                       # number of WriteReq accesses(hits+misses)
system.cpu1.dcache.WriteReq_miss_rate::.cpu1.data     0.261498                       # miss rate for WriteReq accesses
system.cpu1.dcache.WriteReq_miss_rate::total     0.261498                       # miss rate for WriteReq accesses
system.cpu1.dcache.WriteReq_avg_miss_latency::.cpu1.data 72271.398749                       # average WriteReq miss latency
system.cpu1.dcache.WriteReq_avg_miss_latency::total 72271.398749                       # average WriteReq miss latency
system.cpu1.dcache.WriteReq_mshr_hits::.cpu1.data       862960                       # number of WriteReq MSHR hits
system.cpu1.dcache.WriteReq_mshr_hits::total       862960                       # number of WriteReq MSHR hits
system.cpu1.dcache.WriteReq_mshr_misses::.cpu1.data       106511                       # number of WriteReq MSHR misses
system.cpu1.dcache.WriteReq_mshr_misses::total       106511                       # number of WriteReq MSHR misses
system.cpu1.dcache.WriteReq_mshr_miss_latency::.cpu1.data   6589031299                       # number of WriteReq MSHR miss cycles
system.cpu1.dcache.WriteReq_mshr_miss_latency::total   6589031299                       # number of WriteReq MSHR miss cycles
system.cpu1.dcache.WriteReq_mshr_miss_rate::.cpu1.data     0.028730                       # mshr miss rate for WriteReq accesses
system.cpu1.dcache.WriteReq_mshr_miss_rate::total     0.028730                       # mshr miss rate for WriteReq accesses
system.cpu1.dcache.WriteReq_avg_mshr_miss_latency::.cpu1.data 61862.448940                       # average WriteReq mshr miss latency
system.cpu1.dcache.WriteReq_avg_mshr_miss_latency::total 61862.448940                       # average WriteReq mshr miss latency
system.cpu1.dcache.LoadLockedReq_hits::.cpu1.data          703                       # number of LoadLockedReq hits
system.cpu1.dcache.LoadLockedReq_hits::total          703                       # number of LoadLockedReq hits
system.cpu1.dcache.LoadLockedReq_misses::.cpu1.data          145                       # number of LoadLockedReq misses
system.cpu1.dcache.LoadLockedReq_misses::total          145                       # number of LoadLockedReq misses
system.cpu1.dcache.LoadLockedReq_miss_latency::.cpu1.data     13010500                       # number of LoadLockedReq miss cycles
system.cpu1.dcache.LoadLockedReq_miss_latency::total     13010500                       # number of LoadLockedReq miss cycles
system.cpu1.dcache.LoadLockedReq_accesses::.cpu1.data          848                       # number of LoadLockedReq accesses(hits+misses)
system.cpu1.dcache.LoadLockedReq_accesses::total          848                       # number of LoadLockedReq accesses(hits+misses)
system.cpu1.dcache.LoadLockedReq_miss_rate::.cpu1.data     0.170991                       # miss rate for LoadLockedReq accesses
system.cpu1.dcache.LoadLockedReq_miss_rate::total     0.170991                       # miss rate for LoadLockedReq accesses
system.cpu1.dcache.LoadLockedReq_avg_miss_latency::.cpu1.data 89727.586207                       # average LoadLockedReq miss latency
system.cpu1.dcache.LoadLockedReq_avg_miss_latency::total 89727.586207                       # average LoadLockedReq miss latency
system.cpu1.dcache.LoadLockedReq_mshr_hits::.cpu1.data           63                       # number of LoadLockedReq MSHR hits
system.cpu1.dcache.LoadLockedReq_mshr_hits::total           63                       # number of LoadLockedReq MSHR hits
system.cpu1.dcache.LoadLockedReq_mshr_misses::.cpu1.data           82                       # number of LoadLockedReq MSHR misses
system.cpu1.dcache.LoadLockedReq_mshr_misses::total           82                       # number of LoadLockedReq MSHR misses
system.cpu1.dcache.LoadLockedReq_mshr_miss_latency::.cpu1.data      6933500                       # number of LoadLockedReq MSHR miss cycles
system.cpu1.dcache.LoadLockedReq_mshr_miss_latency::total      6933500                       # number of LoadLockedReq MSHR miss cycles
system.cpu1.dcache.LoadLockedReq_mshr_miss_rate::.cpu1.data     0.096698                       # mshr miss rate for LoadLockedReq accesses
system.cpu1.dcache.LoadLockedReq_mshr_miss_rate::total     0.096698                       # mshr miss rate for LoadLockedReq accesses
system.cpu1.dcache.LoadLockedReq_avg_mshr_miss_latency::.cpu1.data 84554.878049                       # average LoadLockedReq mshr miss latency
system.cpu1.dcache.LoadLockedReq_avg_mshr_miss_latency::total 84554.878049                       # average LoadLockedReq mshr miss latency
system.cpu1.dcache.StoreCondReq_hits::.cpu1.data          586                       # number of StoreCondReq hits
system.cpu1.dcache.StoreCondReq_hits::total          586                       # number of StoreCondReq hits
system.cpu1.dcache.StoreCondReq_misses::.cpu1.data          214                       # number of StoreCondReq misses
system.cpu1.dcache.StoreCondReq_misses::total          214                       # number of StoreCondReq misses
system.cpu1.dcache.StoreCondReq_miss_latency::.cpu1.data      1473000                       # number of StoreCondReq miss cycles
system.cpu1.dcache.StoreCondReq_miss_latency::total      1473000                       # number of StoreCondReq miss cycles
system.cpu1.dcache.StoreCondReq_accesses::.cpu1.data          800                       # number of StoreCondReq accesses(hits+misses)
system.cpu1.dcache.StoreCondReq_accesses::total          800                       # number of StoreCondReq accesses(hits+misses)
system.cpu1.dcache.StoreCondReq_miss_rate::.cpu1.data     0.267500                       # miss rate for StoreCondReq accesses
system.cpu1.dcache.StoreCondReq_miss_rate::total     0.267500                       # miss rate for StoreCondReq accesses
system.cpu1.dcache.StoreCondReq_avg_miss_latency::.cpu1.data  6883.177570                       # average StoreCondReq miss latency
system.cpu1.dcache.StoreCondReq_avg_miss_latency::total  6883.177570                       # average StoreCondReq miss latency
system.cpu1.dcache.StoreCondReq_mshr_misses::.cpu1.data          214                       # number of StoreCondReq MSHR misses
system.cpu1.dcache.StoreCondReq_mshr_misses::total          214                       # number of StoreCondReq MSHR misses
system.cpu1.dcache.StoreCondReq_mshr_miss_latency::.cpu1.data      1259000                       # number of StoreCondReq MSHR miss cycles
system.cpu1.dcache.StoreCondReq_mshr_miss_latency::total      1259000                       # number of StoreCondReq MSHR miss cycles
system.cpu1.dcache.StoreCondReq_mshr_miss_rate::.cpu1.data     0.267500                       # mshr miss rate for StoreCondReq accesses
system.cpu1.dcache.StoreCondReq_mshr_miss_rate::total     0.267500                       # mshr miss rate for StoreCondReq accesses
system.cpu1.dcache.StoreCondReq_avg_mshr_miss_latency::.cpu1.data  5883.177570                       # average StoreCondReq mshr miss latency
system.cpu1.dcache.StoreCondReq_avg_mshr_miss_latency::total  5883.177570                       # average StoreCondReq mshr miss latency
system.cpu1.dcache.SwapReq_hits::.cpu1.data          313                       # number of SwapReq hits
system.cpu1.dcache.SwapReq_hits::total            313                       # number of SwapReq hits
system.cpu1.dcache.SwapReq_misses::.cpu1.data          144                       # number of SwapReq misses
system.cpu1.dcache.SwapReq_misses::total          144                       # number of SwapReq misses
system.cpu1.dcache.SwapReq_miss_latency::.cpu1.data       702000                       # number of SwapReq miss cycles
system.cpu1.dcache.SwapReq_miss_latency::total       702000                       # number of SwapReq miss cycles
system.cpu1.dcache.SwapReq_accesses::.cpu1.data          457                       # number of SwapReq accesses(hits+misses)
system.cpu1.dcache.SwapReq_accesses::total          457                       # number of SwapReq accesses(hits+misses)
system.cpu1.dcache.SwapReq_miss_rate::.cpu1.data     0.315098                       # miss rate for SwapReq accesses
system.cpu1.dcache.SwapReq_miss_rate::total     0.315098                       # miss rate for SwapReq accesses
system.cpu1.dcache.SwapReq_avg_miss_latency::.cpu1.data         4875                       # average SwapReq miss latency
system.cpu1.dcache.SwapReq_avg_miss_latency::total         4875                       # average SwapReq miss latency
system.cpu1.dcache.SwapReq_mshr_misses::.cpu1.data          144                       # number of SwapReq MSHR misses
system.cpu1.dcache.SwapReq_mshr_misses::total          144                       # number of SwapReq MSHR misses
system.cpu1.dcache.SwapReq_mshr_miss_latency::.cpu1.data       558000                       # number of SwapReq MSHR miss cycles
system.cpu1.dcache.SwapReq_mshr_miss_latency::total       558000                       # number of SwapReq MSHR miss cycles
system.cpu1.dcache.SwapReq_mshr_miss_rate::.cpu1.data     0.315098                       # mshr miss rate for SwapReq accesses
system.cpu1.dcache.SwapReq_mshr_miss_rate::total     0.315098                       # mshr miss rate for SwapReq accesses
system.cpu1.dcache.SwapReq_avg_mshr_miss_latency::.cpu1.data         3875                       # average SwapReq mshr miss latency
system.cpu1.dcache.SwapReq_avg_mshr_miss_latency::total         3875                       # average SwapReq mshr miss latency
system.cpu1.dcache.tags.pwrStateResidencyTicks::UNDEFINED 1104558372000                       # Cumulative time (in ticks) in various power states
system.cpu1.dcache.tags.tagsinuse           31.996575                       # Cycle average of tags in use
system.cpu1.dcache.tags.total_refs           71020671                       # Total number of references to valid blocks.
system.cpu1.dcache.tags.sampled_refs          8176392                       # Sample count of references to valid blocks.
system.cpu1.dcache.tags.avg_refs             8.686065                       # Average number of references to valid blocks.
system.cpu1.dcache.tags.warmup_cycle                0                       # Cycle when the warmup percentage was hit.
system.cpu1.dcache.tags.occ_blocks::.cpu1.data    31.996575                       # Average occupied blocks per requestor
system.cpu1.dcache.tags.occ_percent::.cpu1.data     0.999893                       # Average percentage of cache occupancy
system.cpu1.dcache.tags.occ_percent::total     0.999893                       # Average percentage of cache occupancy
system.cpu1.dcache.tags.occ_task_id_blocks::1024           29                       # Occupied blocks per task id
system.cpu1.dcache.tags.age_task_id_blocks_1024::1           29                       # Occupied blocks per task id
system.cpu1.dcache.tags.occ_task_id_percent::1024     0.906250                       # Percentage of cache occupancy per task id
system.cpu1.dcache.tags.tag_accesses        169797040                       # Number of tag accesses
system.cpu1.dcache.tags.data_accesses       169797040                       # Number of data accesses
system.cpu_clk_domain.clock                       500                       # Clock period in ticks
system.tol2bus.pwrStateResidencyTicks::UNDEFINED 1104558372000                       # Cumulative time (in ticks) in various power states
system.tol2bus.trans_dist::ReadResp          47813776                       # Transaction distribution
system.tol2bus.trans_dist::WritebackDirty      2496019                       # Transaction distribution
system.tol2bus.trans_dist::WritebackClean     46707933                       # Transaction distribution
system.tol2bus.trans_dist::CleanEvict       132831284                       # Transaction distribution
system.tol2bus.trans_dist::HardPFReq         87582406                       # Transaction distribution
system.tol2bus.trans_dist::HardPFResp               3                       # Transaction distribution
system.tol2bus.trans_dist::UpgradeReq            1413                       # Transaction distribution
system.tol2bus.trans_dist::SCUpgradeReq           448                       # Transaction distribution
system.tol2bus.trans_dist::UpgradeResp           1861                       # Transaction distribution
system.tol2bus.trans_dist::ReadExReq           211453                       # Transaction distribution
system.tol2bus.trans_dist::ReadExResp          211453                       # Transaction distribution
system.tol2bus.trans_dist::ReadCleanReq         18329                       # Transaction distribution
system.tol2bus.trans_dist::ReadSharedReq     47795448                       # Transaction distribution
system.tol2bus.pkt_count_system.cpu0.icache.mem_side::system.l2.cpu_side        46528                       # Packet count per connected master and slave (bytes)
system.tol2bus.pkt_count_system.cpu0.dcache.mem_side::system.l2.cpu_side    119491420                       # Packet count per connected master and slave (bytes)
system.tol2bus.pkt_count_system.cpu1.icache.mem_side::system.l2.cpu_side         8457                       # Packet count per connected master and slave (bytes)
system.tol2bus.pkt_count_system.cpu1.dcache.mem_side::system.l2.cpu_side     24526275                       # Packet count per connected master and slave (bytes)
system.tol2bus.pkt_count::total             144072680                       # Packet count per connected master and slave (bytes)
system.tol2bus.pkt_size_system.cpu0.icache.mem_side::system.l2.cpu_side      1985152                       # Cumulative packet size per connected master and slave (bytes)
system.tol2bus.pkt_size_system.cpu0.dcache.mem_side::system.l2.cpu_side   5098176960                       # Cumulative packet size per connected master and slave (bytes)
system.tol2bus.pkt_size_system.cpu1.icache.mem_side::system.l2.cpu_side       360832                       # Cumulative packet size per connected master and slave (bytes)
system.tol2bus.pkt_size_system.cpu1.dcache.mem_side::system.l2.cpu_side   1046353344                       # Cumulative packet size per connected master and slave (bytes)
system.tol2bus.pkt_size::total             6146876288                       # Cumulative packet size per connected master and slave (bytes)
system.tol2bus.snoops                       221599149                       # Total snoops (count)
system.tol2bus.snoopTraffic                  75791680                       # Total snoop traffic (bytes)
system.tol2bus.snoop_fanout::samples        269656286                       # Request fanout histogram
system.tol2bus.snoop_fanout::mean            0.153018                       # Request fanout histogram
system.tol2bus.snoop_fanout::stdev           0.361483                       # Request fanout histogram
system.tol2bus.snoop_fanout::underflows             0      0.00%      0.00% # Request fanout histogram
system.tol2bus.snoop_fanout::0              228537949     84.75%     84.75% # Request fanout histogram
system.tol2bus.snoop_fanout::1               40974513     15.20%     99.95% # Request fanout histogram
system.tol2bus.snoop_fanout::2                 143824      0.05%    100.00% # Request fanout histogram
system.tol2bus.snoop_fanout::3                      0      0.00%    100.00% # Request fanout histogram
system.tol2bus.snoop_fanout::4                      0      0.00%    100.00% # Request fanout histogram
system.tol2bus.snoop_fanout::5                      0      0.00%    100.00% # Request fanout histogram
system.tol2bus.snoop_fanout::6                      0      0.00%    100.00% # Request fanout histogram
system.tol2bus.snoop_fanout::7                      0      0.00%    100.00% # Request fanout histogram
system.tol2bus.snoop_fanout::8                      0      0.00%    100.00% # Request fanout histogram
system.tol2bus.snoop_fanout::overflows              0      0.00%    100.00% # Request fanout histogram
system.tol2bus.snoop_fanout::min_value              0                       # Request fanout histogram
system.tol2bus.snoop_fanout::max_value              2                       # Request fanout histogram
system.tol2bus.snoop_fanout::total          269656286                       # Request fanout histogram
system.tol2bus.reqLayer0.occupancy        96122114808                       # Layer occupancy (ticks)
system.tol2bus.reqLayer0.utilization              8.7                       # Layer utilization (%)
system.tol2bus.respLayer1.occupancy       59757802263                       # Layer occupancy (ticks)
system.tol2bus.respLayer1.utilization             5.4                       # Layer utilization (%)
system.tol2bus.respLayer0.occupancy          23267991                       # Layer occupancy (ticks)
system.tol2bus.respLayer0.utilization             0.0                       # Layer utilization (%)
system.tol2bus.respLayer3.occupancy       12270826477                       # Layer occupancy (ticks)
system.tol2bus.respLayer3.utilization             1.1                       # Layer utilization (%)
system.tol2bus.respLayer2.occupancy           4230496                       # Layer occupancy (ticks)
system.tol2bus.respLayer2.utilization             0.0                       # Layer utilization (%)
system.tol2bus.snoopLayer0.occupancy             4502                       # Layer occupancy (ticks)
system.tol2bus.snoopLayer0.utilization            0.0                       # Layer utilization (%)

---------- End Simulation Statistics   ----------
