
---------- Begin Simulation Statistics ----------
final_tick                               1050451675500                       # Number of ticks from beginning of simulation (restored from checkpoints and never reset)
host_inst_rate                                 103142                       # Simulator instruction rate (inst/s)
host_mem_usage                                 739080                       # Number of bytes of host memory used
host_op_rate                                   103443                       # Simulator op (including micro ops) rate (op/s)
host_seconds                                 13970.34                       # Real time elapsed on the host
host_tick_rate                               75191566                       # Simulator tick rate (ticks/s)
sim_freq                                 1000000000000                       # Frequency of simulated ticks
sim_insts                                  1440924059                       # Number of instructions simulated
sim_ops                                    1445129074                       # Number of ops (including micro ops) simulated
sim_seconds                                  1.050452                       # Number of seconds simulated
sim_ticks                                1050451675500                       # Number of ticks simulated
system.cpu0.branchPred.BTBCorrect                   0                       # Number of correct BTB predictions (this stat may not work properly.
system.cpu0.branchPred.BTBHitPct            87.985942                       # BTB Hit Percentage
system.cpu0.branchPred.BTBHits              168106621                       # Number of BTB hits
system.cpu0.branchPred.BTBLookups           191060774                       # Number of BTB lookups
system.cpu0.branchPred.RASInCorrect                 0                       # Number of incorrect RAS predictions.
system.cpu0.branchPred.condIncorrect         14921173                       # Number of conditional branches incorrect
system.cpu0.branchPred.condPredicted        259245499                       # Number of conditional branches predicted
system.cpu0.branchPred.indirectHits          21806861                       # Number of indirect target hits.
system.cpu0.branchPred.indirectLookups       22392710                       # Number of indirect predictor lookups.
system.cpu0.branchPred.indirectMisses          585849                       # Number of indirect misses.
system.cpu0.branchPred.lookups              328973885                       # Number of BP lookups
system.cpu0.branchPred.usedRAS                      0                       # Number of times the RAS was used to get a target.
system.cpu0.branchPredindirectMispredicted      2148437                       # Number of mispredicted indirect branches.
system.cpu0.commit.amos                       1050458                       # Number of atomic instructions committed
system.cpu0.commit.branchMispredicts          9114757                       # The number of times a branch was mispredicted
system.cpu0.commit.branches                 313654984                       # Number of branches committed
system.cpu0.commit.bw_lim_events             33024651                       # number cycles where commit BW limit reached
system.cpu0.commit.commitNonSpecStalls        3160622                       # The number of times commit has been forced to stall to communicate backwards
system.cpu0.commit.commitSquashedInsts       46013709                       # The number of squashed insts skipped by commit
system.cpu0.commit.committedInsts          1250517847                       # Number of instructions committed
system.cpu0.commit.committedOps            1251571592                       # Number of ops (including micro ops) committed
system.cpu0.commit.committed_per_cycle::samples   1935176578                       # Number of insts commited each cycle
system.cpu0.commit.committed_per_cycle::mean     0.646748                       # Number of insts commited each cycle
system.cpu0.commit.committed_per_cycle::stdev     1.395840                       # Number of insts commited each cycle
system.cpu0.commit.committed_per_cycle::underflows            0      0.00%      0.00% # Number of insts commited each cycle
system.cpu0.commit.committed_per_cycle::0   1328601286     68.66%     68.66% # Number of insts commited each cycle
system.cpu0.commit.committed_per_cycle::1    361435411     18.68%     87.33% # Number of insts commited each cycle
system.cpu0.commit.committed_per_cycle::2     85216991      4.40%     91.74% # Number of insts commited each cycle
system.cpu0.commit.committed_per_cycle::3     83205356      4.30%     96.04% # Number of insts commited each cycle
system.cpu0.commit.committed_per_cycle::4     26154148      1.35%     97.39% # Number of insts commited each cycle
system.cpu0.commit.committed_per_cycle::5      8390724      0.43%     97.82% # Number of insts commited each cycle
system.cpu0.commit.committed_per_cycle::6      4717366      0.24%     98.06% # Number of insts commited each cycle
system.cpu0.commit.committed_per_cycle::7      4430645      0.23%     98.29% # Number of insts commited each cycle
system.cpu0.commit.committed_per_cycle::8     33024651      1.71%    100.00% # Number of insts commited each cycle
system.cpu0.commit.committed_per_cycle::overflows            0      0.00%    100.00% # Number of insts commited each cycle
system.cpu0.commit.committed_per_cycle::min_value            0                       # Number of insts commited each cycle
system.cpu0.commit.committed_per_cycle::max_value            8                       # Number of insts commited each cycle
system.cpu0.commit.committed_per_cycle::total   1935176578                       # Number of insts commited each cycle
system.cpu0.commit.fp_insts                        50                       # Number of committed floating point instructions.
system.cpu0.commit.function_calls            24112852                       # Number of function calls committed.
system.cpu0.commit.int_insts               1209817889                       # Number of committed integer instructions.
system.cpu0.commit.loads                    388697249                       # Number of loads committed
system.cpu0.commit.membars                    2104060                       # Number of memory barriers committed
system.cpu0.commit.op_class_0::No_OpClass      2104066      0.17%      0.17% # Class of committed instruction
system.cpu0.commit.op_class_0::IntAlu       699530457     55.89%     56.06% # Class of committed instruction
system.cpu0.commit.op_class_0::IntMult       11833132      0.95%     57.01% # Class of committed instruction
system.cpu0.commit.op_class_0::IntDiv         2099835      0.17%     57.17% # Class of committed instruction
system.cpu0.commit.op_class_0::FloatAdd             0      0.00%     57.17% # Class of committed instruction
system.cpu0.commit.op_class_0::FloatCmp             4      0.00%     57.17% # Class of committed instruction
system.cpu0.commit.op_class_0::FloatCvt            12      0.00%     57.17% # Class of committed instruction
system.cpu0.commit.op_class_0::FloatMult            0      0.00%     57.17% # Class of committed instruction
system.cpu0.commit.op_class_0::FloatMultAcc            0      0.00%     57.17% # Class of committed instruction
system.cpu0.commit.op_class_0::FloatDiv             2      0.00%     57.17% # Class of committed instruction
system.cpu0.commit.op_class_0::FloatMisc            4      0.00%     57.17% # Class of committed instruction
system.cpu0.commit.op_class_0::FloatSqrt            0      0.00%     57.17% # Class of committed instruction
system.cpu0.commit.op_class_0::SimdAdd              0      0.00%     57.17% # Class of committed instruction
system.cpu0.commit.op_class_0::SimdAddAcc            0      0.00%     57.17% # Class of committed instruction
system.cpu0.commit.op_class_0::SimdAlu              0      0.00%     57.17% # Class of committed instruction
system.cpu0.commit.op_class_0::SimdCmp              0      0.00%     57.17% # Class of committed instruction
system.cpu0.commit.op_class_0::SimdCvt              0      0.00%     57.17% # Class of committed instruction
system.cpu0.commit.op_class_0::SimdMisc             0      0.00%     57.17% # Class of committed instruction
system.cpu0.commit.op_class_0::SimdMult             0      0.00%     57.17% # Class of committed instruction
system.cpu0.commit.op_class_0::SimdMultAcc            0      0.00%     57.17% # Class of committed instruction
system.cpu0.commit.op_class_0::SimdShift            0      0.00%     57.17% # Class of committed instruction
system.cpu0.commit.op_class_0::SimdShiftAcc            0      0.00%     57.17% # Class of committed instruction
system.cpu0.commit.op_class_0::SimdDiv              0      0.00%     57.17% # Class of committed instruction
system.cpu0.commit.op_class_0::SimdSqrt             0      0.00%     57.17% # Class of committed instruction
system.cpu0.commit.op_class_0::SimdFloatAdd            0      0.00%     57.17% # Class of committed instruction
system.cpu0.commit.op_class_0::SimdFloatAlu            0      0.00%     57.17% # Class of committed instruction
system.cpu0.commit.op_class_0::SimdFloatCmp            0      0.00%     57.17% # Class of committed instruction
system.cpu0.commit.op_class_0::SimdFloatCvt            0      0.00%     57.17% # Class of committed instruction
system.cpu0.commit.op_class_0::SimdFloatDiv            0      0.00%     57.17% # Class of committed instruction
system.cpu0.commit.op_class_0::SimdFloatMisc            0      0.00%     57.17% # Class of committed instruction
system.cpu0.commit.op_class_0::SimdFloatMult            0      0.00%     57.17% # Class of committed instruction
system.cpu0.commit.op_class_0::SimdFloatMultAcc            0      0.00%     57.17% # Class of committed instruction
system.cpu0.commit.op_class_0::SimdFloatSqrt            0      0.00%     57.17% # Class of committed instruction
system.cpu0.commit.op_class_0::SimdReduceAdd            0      0.00%     57.17% # Class of committed instruction
system.cpu0.commit.op_class_0::SimdReduceAlu            0      0.00%     57.17% # Class of committed instruction
system.cpu0.commit.op_class_0::SimdReduceCmp            0      0.00%     57.17% # Class of committed instruction
system.cpu0.commit.op_class_0::SimdFloatReduceAdd            0      0.00%     57.17% # Class of committed instruction
system.cpu0.commit.op_class_0::SimdFloatReduceCmp            0      0.00%     57.17% # Class of committed instruction
system.cpu0.commit.op_class_0::SimdAes              0      0.00%     57.17% # Class of committed instruction
system.cpu0.commit.op_class_0::SimdAesMix            0      0.00%     57.17% # Class of committed instruction
system.cpu0.commit.op_class_0::SimdSha1Hash            0      0.00%     57.17% # Class of committed instruction
system.cpu0.commit.op_class_0::SimdSha1Hash2            0      0.00%     57.17% # Class of committed instruction
system.cpu0.commit.op_class_0::SimdSha256Hash            0      0.00%     57.17% # Class of committed instruction
system.cpu0.commit.op_class_0::SimdSha256Hash2            0      0.00%     57.17% # Class of committed instruction
system.cpu0.commit.op_class_0::SimdShaSigma2            0      0.00%     57.17% # Class of committed instruction
system.cpu0.commit.op_class_0::SimdShaSigma3            0      0.00%     57.17% # Class of committed instruction
system.cpu0.commit.op_class_0::SimdPredAlu            0      0.00%     57.17% # Class of committed instruction
system.cpu0.commit.op_class_0::MemRead      389747699     31.14%     88.31% # Class of committed instruction
system.cpu0.commit.op_class_0::MemWrite     146256353     11.69%    100.00% # Class of committed instruction
system.cpu0.commit.op_class_0::FloatMemRead            8      0.00%    100.00% # Class of committed instruction
system.cpu0.commit.op_class_0::FloatMemWrite           20      0.00%    100.00% # Class of committed instruction
system.cpu0.commit.op_class_0::IprAccess            0      0.00%    100.00% # Class of committed instruction
system.cpu0.commit.op_class_0::InstPrefetch            0      0.00%    100.00% # Class of committed instruction
system.cpu0.commit.op_class_0::total       1251571592                       # Class of committed instruction
system.cpu0.commit.refs                     536004080                       # Number of memory references committed
system.cpu0.commit.swp_count                        0                       # Number of s/w prefetches committed
system.cpu0.commit.vec_insts                        0                       # Number of committed Vector instructions.
system.cpu0.committedInsts                 1250517847                       # Number of Instructions Simulated
system.cpu0.committedOps                   1251571592                       # Number of Ops (including micro ops) Simulated
system.cpu0.cpi                              1.672557                       # CPI: Cycles Per Instruction
system.cpu0.cpi_total                        1.672557                       # CPI: Total CPI of All Threads
system.cpu0.decode.BlockedCycles            275804772                       # Number of cycles decode is blocked
system.cpu0.decode.BranchMispred              5828694                       # Number of times decode detected a branch misprediction
system.cpu0.decode.BranchResolved           166668640                       # Number of times decode resolved a branch
system.cpu0.decode.DecodedInsts            1316509898                       # Number of instructions handled by decode
system.cpu0.decode.IdleCycles               744550063                       # Number of cycles decode is idle
system.cpu0.decode.RunCycles                915312433                       # Number of cycles decode is running
system.cpu0.decode.SquashCycles               9123063                       # Number of cycles decode is squashing
system.cpu0.decode.SquashedInsts             13700987                       # Number of squashed instructions handled by decode
system.cpu0.decode.UnblockCycles              3506796                       # Number of cycles decode is unblocking
system.cpu0.dtb.accesses                            0                       # DTB accesses
system.cpu0.dtb.hits                                0                       # DTB hits
system.cpu0.dtb.misses                              0                       # DTB misses
system.cpu0.dtb.read_accesses                       0                       # DTB read accesses
system.cpu0.dtb.read_hits                           0                       # DTB read hits
system.cpu0.dtb.read_misses                         0                       # DTB read misses
system.cpu0.dtb.write_accesses                      0                       # DTB write accesses
system.cpu0.dtb.write_hits                          0                       # DTB write hits
system.cpu0.dtb.write_misses                        0                       # DTB write misses
system.cpu0.fetch.Branches                  328973885                       # Number of branches that fetch encountered
system.cpu0.fetch.CacheLines                232661307                       # Number of cache lines fetched
system.cpu0.fetch.Cycles                   1206330924                       # Number of cycles fetch has run and was not squashing or blocked
system.cpu0.fetch.IcacheSquashes              5747803                       # Number of outstanding Icache misses that were squashed
system.cpu0.fetch.IcacheWaitRetryStallCycles           62                       # Number of stall cycles due to full MSHR
system.cpu0.fetch.Insts                    1340056280                       # Number of instructions fetch has processed
system.cpu0.fetch.MiscStallCycles                  21                       # Number of cycles fetch has spent waiting on interrupts, or bad addresses, or out of MSHRs
system.cpu0.fetch.PendingTrapStallCycles           91                       # Number of stall cycles due to pending traps
system.cpu0.fetch.SquashCycles               29858988                       # Number of cycles fetch has spent squashing
system.cpu0.fetch.branchRate                 0.157286                       # Number of branch fetches per cycle
system.cpu0.fetch.icacheStallCycles         727036535                       # Number of cycles fetch is stalled on an Icache miss
system.cpu0.fetch.predictedBranches         189913482                       # Number of branches that fetch has predicted taken
system.cpu0.fetch.rate                       0.640696                       # Number of inst fetches per cycle
system.cpu0.fetch.rateDist::samples        1948297127                       # Number of instructions fetched each cycle (Total)
system.cpu0.fetch.rateDist::mean             0.688350                       # Number of instructions fetched each cycle (Total)
system.cpu0.fetch.rateDist::stdev            0.912819                       # Number of instructions fetched each cycle (Total)
system.cpu0.fetch.rateDist::underflows              0      0.00%      0.00% # Number of instructions fetched each cycle (Total)
system.cpu0.fetch.rateDist::0              1001873255     51.42%     51.42% # Number of instructions fetched each cycle (Total)
system.cpu0.fetch.rateDist::1               703225632     36.09%     87.52% # Number of instructions fetched each cycle (Total)
system.cpu0.fetch.rateDist::2               124226130      6.38%     93.89% # Number of instructions fetched each cycle (Total)
system.cpu0.fetch.rateDist::3                97681083      5.01%     98.91% # Number of instructions fetched each cycle (Total)
system.cpu0.fetch.rateDist::4                16555434      0.85%     99.76% # Number of instructions fetched each cycle (Total)
system.cpu0.fetch.rateDist::5                 2456067      0.13%     99.88% # Number of instructions fetched each cycle (Total)
system.cpu0.fetch.rateDist::6                  174297      0.01%     99.89% # Number of instructions fetched each cycle (Total)
system.cpu0.fetch.rateDist::7                     442      0.00%     99.89% # Number of instructions fetched each cycle (Total)
system.cpu0.fetch.rateDist::8                 2104787      0.11%    100.00% # Number of instructions fetched each cycle (Total)
system.cpu0.fetch.rateDist::overflows               0      0.00%    100.00% # Number of instructions fetched each cycle (Total)
system.cpu0.fetch.rateDist::min_value               0                       # Number of instructions fetched each cycle (Total)
system.cpu0.fetch.rateDist::max_value               8                       # Number of instructions fetched each cycle (Total)
system.cpu0.fetch.rateDist::total          1948297127                       # Number of instructions fetched each cycle (Total)
system.cpu0.fp_regfile_reads                       44                       # number of floating regfile reads
system.cpu0.fp_regfile_writes                      23                       # number of floating regfile writes
system.cpu0.idleCycles                      143265399                       # Total number of cycles that the CPU has spent unscheduled due to idling
system.cpu0.iew.branchMispredicts             9186488                       # Number of branch mispredicts detected at execute
system.cpu0.iew.exec_branches               319242695                       # Number of branches executed
system.cpu0.iew.exec_nop                            0                       # number of nop insts executed
system.cpu0.iew.exec_rate                    0.617842                       # Inst execution rate
system.cpu0.iew.exec_refs                   562122797                       # number of memory reference insts executed
system.cpu0.iew.exec_stores                 151629202                       # Number of stores executed
system.cpu0.iew.exec_swp                            0                       # number of swp insts executed
system.cpu0.iew.iewBlockCycles              217549192                       # Number of cycles IEW is blocking
system.cpu0.iew.iewDispLoadInsts            408542310                       # Number of dispatched load instructions
system.cpu0.iew.iewDispNonSpecInsts           1056779                       # Number of dispatched non-speculative instructions
system.cpu0.iew.iewDispSquashedInsts          5285899                       # Number of squashed instructions skipped by dispatch
system.cpu0.iew.iewDispStoreInsts           152175963                       # Number of dispatched store instructions
system.cpu0.iew.iewDispatchedInsts         1297552896                       # Number of instructions dispatched to IQ
system.cpu0.iew.iewExecLoadInsts            410493595                       # Number of load instructions executed
system.cpu0.iew.iewExecSquashedInsts          4945582                       # Number of squashed instructions skipped in execute
system.cpu0.iew.iewExecutedInsts           1292254547                       # Number of executed instructions
system.cpu0.iew.iewIQFullEvents                970691                       # Number of times the IQ has become full, causing a stall
system.cpu0.iew.iewIdleCycles                       0                       # Number of cycles IEW is idle
system.cpu0.iew.iewLSQFullEvents              5856055                       # Number of times the LSQ has become full, causing a stall
system.cpu0.iew.iewSquashCycles               9123063                       # Number of cycles IEW is squashing
system.cpu0.iew.iewUnblockCycles              8015441                       # Number of cycles IEW is unblocking
system.cpu0.iew.lsq.thread0.blockedLoads            0                       # Number of blocked loads due to partial load-store forwarding
system.cpu0.iew.lsq.thread0.cacheBlocked       154656                       # Number of times an access to memory failed due to the cache being blocked
system.cpu0.iew.lsq.thread0.forwLoads        21510352                       # Number of loads that had data forwarded from stores
system.cpu0.iew.lsq.thread0.ignoredResponses        77352                       # Number of memory responses ignored because the instruction is squashed
system.cpu0.iew.lsq.thread0.invAddrLoads            0                       # Number of loads ignored due to an invalid address
system.cpu0.iew.lsq.thread0.invAddrSwpfs            0                       # Number of software prefetches ignored due to an invalid address
system.cpu0.iew.lsq.thread0.memOrderViolation         7191                       # Number of memory ordering violations
system.cpu0.iew.lsq.thread0.rescheduledLoads      4891107                       # Number of loads that were rescheduled
system.cpu0.iew.lsq.thread0.squashedLoads     19845061                       # Number of loads squashed
system.cpu0.iew.lsq.thread0.squashedStores      4869132                       # Number of stores squashed
system.cpu0.iew.memOrderViolationEvents          7191                       # Number of memory order violations
system.cpu0.iew.predictedNotTakenIncorrect       399607                       # Number of branches that were predicted not taken incorrectly
system.cpu0.iew.predictedTakenIncorrect       8786881                       # Number of branches that were predicted taken incorrectly
system.cpu0.iew.wb_consumers                591373657                       # num instructions consuming a value
system.cpu0.iew.wb_count                   1283864442                       # cumulative count of insts written-back
system.cpu0.iew.wb_fanout                    0.840617                       # average fanout of values written-back
system.cpu0.iew.wb_producers                497119009                       # num instructions producing a value
system.cpu0.iew.wb_rate                      0.613830                       # insts written-back per cycle
system.cpu0.iew.wb_sent                    1283936996                       # cumulative count of insts sent to commit
system.cpu0.int_regfile_reads              1585965231                       # number of integer regfile reads
system.cpu0.int_regfile_writes              823207271                       # number of integer regfile writes
system.cpu0.ipc                              0.597887                       # IPC: Instructions Per Cycle
system.cpu0.ipc_total                        0.597887                       # IPC: Total IPC of All Threads
system.cpu0.iq.FU_type_0::No_OpClass          2106115      0.16%      0.16% # Type of FU issued
system.cpu0.iq.FU_type_0::IntAlu            717066310     55.28%     55.44% # Type of FU issued
system.cpu0.iq.FU_type_0::IntMult            11842072      0.91%     56.35% # Type of FU issued
system.cpu0.iq.FU_type_0::IntDiv              2100413      0.16%     56.52% # Type of FU issued
system.cpu0.iq.FU_type_0::FloatAdd                  0      0.00%     56.52% # Type of FU issued
system.cpu0.iq.FU_type_0::FloatCmp                  4      0.00%     56.52% # Type of FU issued
system.cpu0.iq.FU_type_0::FloatCvt                 12      0.00%     56.52% # Type of FU issued
system.cpu0.iq.FU_type_0::FloatMult                 0      0.00%     56.52% # Type of FU issued
system.cpu0.iq.FU_type_0::FloatMultAcc              0      0.00%     56.52% # Type of FU issued
system.cpu0.iq.FU_type_0::FloatDiv                  2      0.00%     56.52% # Type of FU issued
system.cpu0.iq.FU_type_0::FloatMisc                 4      0.00%     56.52% # Type of FU issued
system.cpu0.iq.FU_type_0::FloatSqrt                 0      0.00%     56.52% # Type of FU issued
system.cpu0.iq.FU_type_0::SimdAdd                   0      0.00%     56.52% # Type of FU issued
system.cpu0.iq.FU_type_0::SimdAddAcc                0      0.00%     56.52% # Type of FU issued
system.cpu0.iq.FU_type_0::SimdAlu                   0      0.00%     56.52% # Type of FU issued
system.cpu0.iq.FU_type_0::SimdCmp                   0      0.00%     56.52% # Type of FU issued
system.cpu0.iq.FU_type_0::SimdCvt                   0      0.00%     56.52% # Type of FU issued
system.cpu0.iq.FU_type_0::SimdMisc                  0      0.00%     56.52% # Type of FU issued
system.cpu0.iq.FU_type_0::SimdMult                  0      0.00%     56.52% # Type of FU issued
system.cpu0.iq.FU_type_0::SimdMultAcc               0      0.00%     56.52% # Type of FU issued
system.cpu0.iq.FU_type_0::SimdShift                 0      0.00%     56.52% # Type of FU issued
system.cpu0.iq.FU_type_0::SimdShiftAcc              0      0.00%     56.52% # Type of FU issued
system.cpu0.iq.FU_type_0::SimdDiv                   0      0.00%     56.52% # Type of FU issued
system.cpu0.iq.FU_type_0::SimdSqrt                  0      0.00%     56.52% # Type of FU issued
system.cpu0.iq.FU_type_0::SimdFloatAdd              0      0.00%     56.52% # Type of FU issued
system.cpu0.iq.FU_type_0::SimdFloatAlu              0      0.00%     56.52% # Type of FU issued
system.cpu0.iq.FU_type_0::SimdFloatCmp              0      0.00%     56.52% # Type of FU issued
system.cpu0.iq.FU_type_0::SimdFloatCvt              0      0.00%     56.52% # Type of FU issued
system.cpu0.iq.FU_type_0::SimdFloatDiv              0      0.00%     56.52% # Type of FU issued
system.cpu0.iq.FU_type_0::SimdFloatMisc             0      0.00%     56.52% # Type of FU issued
system.cpu0.iq.FU_type_0::SimdFloatMult             0      0.00%     56.52% # Type of FU issued
system.cpu0.iq.FU_type_0::SimdFloatMultAcc            0      0.00%     56.52% # Type of FU issued
system.cpu0.iq.FU_type_0::SimdFloatSqrt             0      0.00%     56.52% # Type of FU issued
system.cpu0.iq.FU_type_0::SimdReduceAdd             0      0.00%     56.52% # Type of FU issued
system.cpu0.iq.FU_type_0::SimdReduceAlu             0      0.00%     56.52% # Type of FU issued
system.cpu0.iq.FU_type_0::SimdReduceCmp             0      0.00%     56.52% # Type of FU issued
system.cpu0.iq.FU_type_0::SimdFloatReduceAdd            0      0.00%     56.52% # Type of FU issued
system.cpu0.iq.FU_type_0::SimdFloatReduceCmp            0      0.00%     56.52% # Type of FU issued
system.cpu0.iq.FU_type_0::SimdAes                   0      0.00%     56.52% # Type of FU issued
system.cpu0.iq.FU_type_0::SimdAesMix                0      0.00%     56.52% # Type of FU issued
system.cpu0.iq.FU_type_0::SimdSha1Hash              0      0.00%     56.52% # Type of FU issued
system.cpu0.iq.FU_type_0::SimdSha1Hash2             0      0.00%     56.52% # Type of FU issued
system.cpu0.iq.FU_type_0::SimdSha256Hash            0      0.00%     56.52% # Type of FU issued
system.cpu0.iq.FU_type_0::SimdSha256Hash2            0      0.00%     56.52% # Type of FU issued
system.cpu0.iq.FU_type_0::SimdShaSigma2             0      0.00%     56.52% # Type of FU issued
system.cpu0.iq.FU_type_0::SimdShaSigma3             0      0.00%     56.52% # Type of FU issued
system.cpu0.iq.FU_type_0::SimdPredAlu               0      0.00%     56.52% # Type of FU issued
system.cpu0.iq.FU_type_0::MemRead           413346055     31.86%     88.38% # Type of FU issued
system.cpu0.iq.FU_type_0::MemWrite          150739113     11.62%    100.00% # Type of FU issued
system.cpu0.iq.FU_type_0::FloatMemRead              9      0.00%    100.00% # Type of FU issued
system.cpu0.iq.FU_type_0::FloatMemWrite            20      0.00%    100.00% # Type of FU issued
system.cpu0.iq.FU_type_0::IprAccess                 0      0.00%    100.00% # Type of FU issued
system.cpu0.iq.FU_type_0::InstPrefetch              0      0.00%    100.00% # Type of FU issued
system.cpu0.iq.FU_type_0::total            1297200129                       # Type of FU issued
system.cpu0.iq.fp_alu_accesses                     55                       # Number of floating point alu accesses
system.cpu0.iq.fp_inst_queue_reads                106                       # Number of floating instruction queue reads
system.cpu0.iq.fp_inst_queue_wakeup_accesses           51                       # Number of floating instruction queue wakeup accesses
system.cpu0.iq.fp_inst_queue_writes                52                       # Number of floating instruction queue writes
system.cpu0.iq.fu_busy_cnt                    1675064                       # FU busy when requested
system.cpu0.iq.fu_busy_rate                  0.001291                       # FU busy rate (busy events/executed inst)
system.cpu0.iq.fu_full::No_OpClass                  0      0.00%      0.00% # attempts to use FU when none available
system.cpu0.iq.fu_full::IntAlu                 329169     19.65%     19.65% # attempts to use FU when none available
system.cpu0.iq.fu_full::IntMult                    12      0.00%     19.65% # attempts to use FU when none available
system.cpu0.iq.fu_full::IntDiv                      0      0.00%     19.65% # attempts to use FU when none available
system.cpu0.iq.fu_full::FloatAdd                    0      0.00%     19.65% # attempts to use FU when none available
system.cpu0.iq.fu_full::FloatCmp                    0      0.00%     19.65% # attempts to use FU when none available
system.cpu0.iq.fu_full::FloatCvt                    0      0.00%     19.65% # attempts to use FU when none available
system.cpu0.iq.fu_full::FloatMult                   0      0.00%     19.65% # attempts to use FU when none available
system.cpu0.iq.fu_full::FloatMultAcc                0      0.00%     19.65% # attempts to use FU when none available
system.cpu0.iq.fu_full::FloatDiv                    0      0.00%     19.65% # attempts to use FU when none available
system.cpu0.iq.fu_full::FloatMisc                   0      0.00%     19.65% # attempts to use FU when none available
system.cpu0.iq.fu_full::FloatSqrt                   0      0.00%     19.65% # attempts to use FU when none available
system.cpu0.iq.fu_full::SimdAdd                     0      0.00%     19.65% # attempts to use FU when none available
system.cpu0.iq.fu_full::SimdAddAcc                  0      0.00%     19.65% # attempts to use FU when none available
system.cpu0.iq.fu_full::SimdAlu                     0      0.00%     19.65% # attempts to use FU when none available
system.cpu0.iq.fu_full::SimdCmp                     0      0.00%     19.65% # attempts to use FU when none available
system.cpu0.iq.fu_full::SimdCvt                     0      0.00%     19.65% # attempts to use FU when none available
system.cpu0.iq.fu_full::SimdMisc                    0      0.00%     19.65% # attempts to use FU when none available
system.cpu0.iq.fu_full::SimdMult                    0      0.00%     19.65% # attempts to use FU when none available
system.cpu0.iq.fu_full::SimdMultAcc                 0      0.00%     19.65% # attempts to use FU when none available
system.cpu0.iq.fu_full::SimdShift                   0      0.00%     19.65% # attempts to use FU when none available
system.cpu0.iq.fu_full::SimdShiftAcc                0      0.00%     19.65% # attempts to use FU when none available
system.cpu0.iq.fu_full::SimdDiv                     0      0.00%     19.65% # attempts to use FU when none available
system.cpu0.iq.fu_full::SimdSqrt                    0      0.00%     19.65% # attempts to use FU when none available
system.cpu0.iq.fu_full::SimdFloatAdd                0      0.00%     19.65% # attempts to use FU when none available
system.cpu0.iq.fu_full::SimdFloatAlu                0      0.00%     19.65% # attempts to use FU when none available
system.cpu0.iq.fu_full::SimdFloatCmp                0      0.00%     19.65% # attempts to use FU when none available
system.cpu0.iq.fu_full::SimdFloatCvt                0      0.00%     19.65% # attempts to use FU when none available
system.cpu0.iq.fu_full::SimdFloatDiv                0      0.00%     19.65% # attempts to use FU when none available
system.cpu0.iq.fu_full::SimdFloatMisc               0      0.00%     19.65% # attempts to use FU when none available
system.cpu0.iq.fu_full::SimdFloatMult               0      0.00%     19.65% # attempts to use FU when none available
system.cpu0.iq.fu_full::SimdFloatMultAcc            0      0.00%     19.65% # attempts to use FU when none available
system.cpu0.iq.fu_full::SimdFloatSqrt               0      0.00%     19.65% # attempts to use FU when none available
system.cpu0.iq.fu_full::SimdReduceAdd               0      0.00%     19.65% # attempts to use FU when none available
system.cpu0.iq.fu_full::SimdReduceAlu               0      0.00%     19.65% # attempts to use FU when none available
system.cpu0.iq.fu_full::SimdReduceCmp               0      0.00%     19.65% # attempts to use FU when none available
system.cpu0.iq.fu_full::SimdFloatReduceAdd            0      0.00%     19.65% # attempts to use FU when none available
system.cpu0.iq.fu_full::SimdFloatReduceCmp            0      0.00%     19.65% # attempts to use FU when none available
system.cpu0.iq.fu_full::SimdAes                     0      0.00%     19.65% # attempts to use FU when none available
system.cpu0.iq.fu_full::SimdAesMix                  0      0.00%     19.65% # attempts to use FU when none available
system.cpu0.iq.fu_full::SimdSha1Hash                0      0.00%     19.65% # attempts to use FU when none available
system.cpu0.iq.fu_full::SimdSha1Hash2               0      0.00%     19.65% # attempts to use FU when none available
system.cpu0.iq.fu_full::SimdSha256Hash              0      0.00%     19.65% # attempts to use FU when none available
system.cpu0.iq.fu_full::SimdSha256Hash2             0      0.00%     19.65% # attempts to use FU when none available
system.cpu0.iq.fu_full::SimdShaSigma2               0      0.00%     19.65% # attempts to use FU when none available
system.cpu0.iq.fu_full::SimdShaSigma3               0      0.00%     19.65% # attempts to use FU when none available
system.cpu0.iq.fu_full::SimdPredAlu                 0      0.00%     19.65% # attempts to use FU when none available
system.cpu0.iq.fu_full::MemRead               1038260     61.98%     81.64% # attempts to use FU when none available
system.cpu0.iq.fu_full::MemWrite               307619     18.36%    100.00% # attempts to use FU when none available
system.cpu0.iq.fu_full::FloatMemRead                0      0.00%    100.00% # attempts to use FU when none available
system.cpu0.iq.fu_full::FloatMemWrite               4      0.00%    100.00% # attempts to use FU when none available
system.cpu0.iq.fu_full::IprAccess                   0      0.00%    100.00% # attempts to use FU when none available
system.cpu0.iq.fu_full::InstPrefetch                0      0.00%    100.00% # attempts to use FU when none available
system.cpu0.iq.int_alu_accesses            1296769023                       # Number of integer alu accesses
system.cpu0.iq.int_inst_queue_reads        4544497038                       # Number of integer instruction queue reads
system.cpu0.iq.int_inst_queue_wakeup_accesses   1283864391                       # Number of integer instruction queue wakeup accesses
system.cpu0.iq.int_inst_queue_writes       1343541097                       # Number of integer instruction queue writes
system.cpu0.iq.iqInstsAdded                1294391901                       # Number of instructions added to the IQ (excludes non-spec)
system.cpu0.iq.iqInstsIssued               1297200129                       # Number of instructions issued
system.cpu0.iq.iqNonSpecInstsAdded            3160995                       # Number of non-speculative instructions added to the IQ
system.cpu0.iq.iqSquashedInstsExamined       45981301                       # Number of squashed instructions iterated over during squash; mainly for profiling
system.cpu0.iq.iqSquashedInstsIssued           124695                       # Number of squashed instructions issued
system.cpu0.iq.iqSquashedNonSpecRemoved           373                       # Number of squashed non-spec instructions that were removed
system.cpu0.iq.iqSquashedOperandsExamined     13395855                       # Number of squashed operands that are examined and possibly removed from graph
system.cpu0.iq.issued_per_cycle::samples   1948297127                       # Number of insts issued each cycle
system.cpu0.iq.issued_per_cycle::mean        0.665812                       # Number of insts issued each cycle
system.cpu0.iq.issued_per_cycle::stdev       0.866954                       # Number of insts issued each cycle
system.cpu0.iq.issued_per_cycle::underflows            0      0.00%      0.00% # Number of insts issued each cycle
system.cpu0.iq.issued_per_cycle::0         1045364070     53.66%     53.66% # Number of insts issued each cycle
system.cpu0.iq.issued_per_cycle::1          608692296     31.24%     84.90% # Number of insts issued each cycle
system.cpu0.iq.issued_per_cycle::2          208723384     10.71%     95.61% # Number of insts issued each cycle
system.cpu0.iq.issued_per_cycle::3           75116621      3.86%     99.47% # Number of insts issued each cycle
system.cpu0.iq.issued_per_cycle::4            8127181      0.42%     99.88% # Number of insts issued each cycle
system.cpu0.iq.issued_per_cycle::5             967372      0.05%     99.93% # Number of insts issued each cycle
system.cpu0.iq.issued_per_cycle::6             929086      0.05%     99.98% # Number of insts issued each cycle
system.cpu0.iq.issued_per_cycle::7             225834      0.01%     99.99% # Number of insts issued each cycle
system.cpu0.iq.issued_per_cycle::8             151283      0.01%    100.00% # Number of insts issued each cycle
system.cpu0.iq.issued_per_cycle::overflows            0      0.00%    100.00% # Number of insts issued each cycle
system.cpu0.iq.issued_per_cycle::min_value            0                       # Number of insts issued each cycle
system.cpu0.iq.issued_per_cycle::max_value            8                       # Number of insts issued each cycle
system.cpu0.iq.issued_per_cycle::total     1948297127                       # Number of insts issued each cycle
system.cpu0.iq.rate                          0.620206                       # Inst issue rate
system.cpu0.iq.vec_alu_accesses                     0                       # Number of vector alu accesses
system.cpu0.iq.vec_inst_queue_reads                 0                       # Number of vector instruction queue reads
system.cpu0.iq.vec_inst_queue_wakeup_accesses            0                       # Number of vector instruction queue wakeup accesses
system.cpu0.iq.vec_inst_queue_writes                0                       # Number of vector instruction queue writes
system.cpu0.itb.accesses                            0                       # DTB accesses
system.cpu0.itb.hits                                0                       # DTB hits
system.cpu0.itb.misses                              0                       # DTB misses
system.cpu0.itb.read_accesses                       0                       # DTB read accesses
system.cpu0.itb.read_hits                           0                       # DTB read hits
system.cpu0.itb.read_misses                         0                       # DTB read misses
system.cpu0.itb.write_accesses                      0                       # DTB write accesses
system.cpu0.itb.write_hits                          0                       # DTB write hits
system.cpu0.itb.write_misses                        0                       # DTB write misses
system.cpu0.memDep0.conflictingLoads         11044488                       # Number of conflicting loads.
system.cpu0.memDep0.conflictingStores         2673662                       # Number of conflicting stores.
system.cpu0.memDep0.insertedLoads           408542310                       # Number of loads inserted to the mem dependence unit.
system.cpu0.memDep0.insertedStores          152175963                       # Number of stores inserted to the mem dependence unit.
system.cpu0.misc_regfile_reads                   2066                       # number of misc regfile reads
system.cpu0.misc_regfile_writes                    22                       # number of misc regfile writes
system.cpu0.numCycles                      2091562526                       # number of cpu cycles simulated
system.cpu0.numWorkItemsCompleted                   0                       # number of work items this cpu completed
system.cpu0.numWorkItemsStarted                     0                       # number of work items this cpu started
system.cpu0.quiesceCycles                     9340986                       # Total number of cycles that CPU has spent quiesced or waiting for an interrupt
system.cpu0.rename.BlockCycles              233959191                       # Number of cycles rename is blocking
system.cpu0.rename.CommittedMaps            800543313                       # Number of HB maps that are committed
system.cpu0.rename.IQFullEvents               7752013                       # Number of times rename has blocked due to IQ full
system.cpu0.rename.IdleCycles               755492097                       # Number of cycles rename is idle
system.cpu0.rename.LQFullEvents              11773182                       # Number of times rename has blocked due to LQ full
system.cpu0.rename.ROBFullEvents                14543                       # Number of times rename has blocked due to ROB full
system.cpu0.rename.RenameLookups           1609750035                       # Number of register rename lookups that rename has made
system.cpu0.rename.RenamedInsts            1311805410                       # Number of instructions processed by rename
system.cpu0.rename.RenamedOperands          846464534                       # Number of destination operands rename has renamed
system.cpu0.rename.RunCycles                907260998                       # Number of cycles rename is running
system.cpu0.rename.SQFullEvents              22667700                       # Number of times rename has blocked due to SQ full
system.cpu0.rename.SquashCycles               9123063                       # Number of cycles rename is squashing
system.cpu0.rename.UnblockCycles             42289217                       # Number of cycles rename is unblocking
system.cpu0.rename.UndoneMaps                45921217                       # Number of HB maps that are undone due to squashing
system.cpu0.rename.fp_rename_lookups               44                       # Number of floating rename lookups
system.cpu0.rename.int_rename_lookups      1609749991                       # Number of integer rename lookups
system.cpu0.rename.serializeStallCycles        172561                       # count of cycles rename stalled for serializing inst
system.cpu0.rename.serializingInsts              6261                       # count of serializing insts renamed
system.cpu0.rename.skidInsts                 16478846                       # count of insts added to the skid buffer
system.cpu0.rename.tempSerializingInsts          6242                       # count of temporary serializing insts renamed
system.cpu0.rob.rob_reads                  3199710942                       # The number of ROB reads
system.cpu0.rob.rob_writes                 2608306209                       # The number of ROB writes
system.cpu0.timesIdled                       22329457                       # Number of times that the entire CPU went into an idle state and unscheduled itself
system.cpu0.workload.numSyscalls                 2033                       # Number of system calls
system.cpu1.branchPred.BTBCorrect                   0                       # Number of correct BTB predictions (this stat may not work properly.
system.cpu1.branchPred.BTBHitPct            92.497719                       # BTB Hit Percentage
system.cpu1.branchPred.BTBHits               12324891                       # Number of BTB hits
system.cpu1.branchPred.BTBLookups            13324535                       # Number of BTB lookups
system.cpu1.branchPred.RASInCorrect                 0                       # Number of incorrect RAS predictions.
system.cpu1.branchPred.condIncorrect          1796013                       # Number of conditional branches incorrect
system.cpu1.branchPred.condPredicted         18013455                       # Number of conditional branches predicted
system.cpu1.branchPred.indirectHits            668642                       # Number of indirect target hits.
system.cpu1.branchPred.indirectLookups         683242                       # Number of indirect predictor lookups.
system.cpu1.branchPred.indirectMisses           14600                       # Number of indirect misses.
system.cpu1.branchPred.lookups               21039483                       # Number of BP lookups
system.cpu1.branchPred.usedRAS                      0                       # Number of times the RAS was used to get a target.
system.cpu1.branchPredindirectMispredicted        42111                       # Number of mispredicted indirect branches.
system.cpu1.commit.amos                       1050240                       # Number of atomic instructions committed
system.cpu1.commit.branchMispredicts          1328144                       # The number of times a branch was mispredicted
system.cpu1.commit.branches                  16228359                       # Number of branches committed
system.cpu1.commit.bw_lim_events              2009798                       # number cycles where commit BW limit reached
system.cpu1.commit.commitNonSpecStalls        3151464                       # The number of times commit has been forced to stall to communicate backwards
system.cpu1.commit.commitSquashedInsts       11025209                       # The number of squashed insts skipped by commit
system.cpu1.commit.committedInsts            67677257                       # Number of instructions committed
system.cpu1.commit.committedOps              68727727                       # Number of ops (including micro ops) committed
system.cpu1.commit.committed_per_cycle::samples    301166642                       # Number of insts commited each cycle
system.cpu1.commit.committed_per_cycle::mean     0.228205                       # Number of insts commited each cycle
system.cpu1.commit.committed_per_cycle::stdev     0.945481                       # Number of insts commited each cycle
system.cpu1.commit.committed_per_cycle::underflows            0      0.00%      0.00% # Number of insts commited each cycle
system.cpu1.commit.committed_per_cycle::0    272430784     90.46%     90.46% # Number of insts commited each cycle
system.cpu1.commit.committed_per_cycle::1     14454126      4.80%     95.26% # Number of insts commited each cycle
system.cpu1.commit.committed_per_cycle::2      5218341      1.73%     96.99% # Number of insts commited each cycle
system.cpu1.commit.committed_per_cycle::3      4051475      1.35%     98.34% # Number of insts commited each cycle
system.cpu1.commit.committed_per_cycle::4      1120304      0.37%     98.71% # Number of insts commited each cycle
system.cpu1.commit.committed_per_cycle::5       501429      0.17%     98.87% # Number of insts commited each cycle
system.cpu1.commit.committed_per_cycle::6      1046946      0.35%     99.22% # Number of insts commited each cycle
system.cpu1.commit.committed_per_cycle::7       333439      0.11%     99.33% # Number of insts commited each cycle
system.cpu1.commit.committed_per_cycle::8      2009798      0.67%    100.00% # Number of insts commited each cycle
system.cpu1.commit.committed_per_cycle::overflows            0      0.00%    100.00% # Number of insts commited each cycle
system.cpu1.commit.committed_per_cycle::min_value            0                       # Number of insts commited each cycle
system.cpu1.commit.committed_per_cycle::max_value            8                       # Number of insts commited each cycle
system.cpu1.commit.committed_per_cycle::total    301166642                       # Number of insts commited each cycle
system.cpu1.commit.fp_insts                        12                       # Number of committed floating point instructions.
system.cpu1.commit.function_calls             1074796                       # Number of function calls committed.
system.cpu1.commit.int_insts                 65712280                       # Number of committed integer instructions.
system.cpu1.commit.loads                     16751631                       # Number of loads committed
system.cpu1.commit.membars                    2100561                       # Number of memory barriers committed
system.cpu1.commit.op_class_0::No_OpClass      2100561      3.06%      3.06% # Class of committed instruction
system.cpu1.commit.op_class_0::IntAlu        43600568     63.44%     66.50% # Class of committed instruction
system.cpu1.commit.op_class_0::IntMult             44      0.00%     66.50% # Class of committed instruction
system.cpu1.commit.op_class_0::IntDiv              88      0.00%     66.50% # Class of committed instruction
system.cpu1.commit.op_class_0::FloatAdd             0      0.00%     66.50% # Class of committed instruction
system.cpu1.commit.op_class_0::FloatCmp             0      0.00%     66.50% # Class of committed instruction
system.cpu1.commit.op_class_0::FloatCvt             0      0.00%     66.50% # Class of committed instruction
system.cpu1.commit.op_class_0::FloatMult            0      0.00%     66.50% # Class of committed instruction
system.cpu1.commit.op_class_0::FloatMultAcc            0      0.00%     66.50% # Class of committed instruction
system.cpu1.commit.op_class_0::FloatDiv             0      0.00%     66.50% # Class of committed instruction
system.cpu1.commit.op_class_0::FloatMisc            0      0.00%     66.50% # Class of committed instruction
system.cpu1.commit.op_class_0::FloatSqrt            0      0.00%     66.50% # Class of committed instruction
system.cpu1.commit.op_class_0::SimdAdd              0      0.00%     66.50% # Class of committed instruction
system.cpu1.commit.op_class_0::SimdAddAcc            0      0.00%     66.50% # Class of committed instruction
system.cpu1.commit.op_class_0::SimdAlu              0      0.00%     66.50% # Class of committed instruction
system.cpu1.commit.op_class_0::SimdCmp              0      0.00%     66.50% # Class of committed instruction
system.cpu1.commit.op_class_0::SimdCvt              0      0.00%     66.50% # Class of committed instruction
system.cpu1.commit.op_class_0::SimdMisc             0      0.00%     66.50% # Class of committed instruction
system.cpu1.commit.op_class_0::SimdMult             0      0.00%     66.50% # Class of committed instruction
system.cpu1.commit.op_class_0::SimdMultAcc            0      0.00%     66.50% # Class of committed instruction
system.cpu1.commit.op_class_0::SimdShift            0      0.00%     66.50% # Class of committed instruction
system.cpu1.commit.op_class_0::SimdShiftAcc            0      0.00%     66.50% # Class of committed instruction
system.cpu1.commit.op_class_0::SimdDiv              0      0.00%     66.50% # Class of committed instruction
system.cpu1.commit.op_class_0::SimdSqrt             0      0.00%     66.50% # Class of committed instruction
system.cpu1.commit.op_class_0::SimdFloatAdd            0      0.00%     66.50% # Class of committed instruction
system.cpu1.commit.op_class_0::SimdFloatAlu            0      0.00%     66.50% # Class of committed instruction
system.cpu1.commit.op_class_0::SimdFloatCmp            0      0.00%     66.50% # Class of committed instruction
system.cpu1.commit.op_class_0::SimdFloatCvt            0      0.00%     66.50% # Class of committed instruction
system.cpu1.commit.op_class_0::SimdFloatDiv            0      0.00%     66.50% # Class of committed instruction
system.cpu1.commit.op_class_0::SimdFloatMisc            0      0.00%     66.50% # Class of committed instruction
system.cpu1.commit.op_class_0::SimdFloatMult            0      0.00%     66.50% # Class of committed instruction
system.cpu1.commit.op_class_0::SimdFloatMultAcc            0      0.00%     66.50% # Class of committed instruction
system.cpu1.commit.op_class_0::SimdFloatSqrt            0      0.00%     66.50% # Class of committed instruction
system.cpu1.commit.op_class_0::SimdReduceAdd            0      0.00%     66.50% # Class of committed instruction
system.cpu1.commit.op_class_0::SimdReduceAlu            0      0.00%     66.50% # Class of committed instruction
system.cpu1.commit.op_class_0::SimdReduceCmp            0      0.00%     66.50% # Class of committed instruction
system.cpu1.commit.op_class_0::SimdFloatReduceAdd            0      0.00%     66.50% # Class of committed instruction
system.cpu1.commit.op_class_0::SimdFloatReduceCmp            0      0.00%     66.50% # Class of committed instruction
system.cpu1.commit.op_class_0::SimdAes              0      0.00%     66.50% # Class of committed instruction
system.cpu1.commit.op_class_0::SimdAesMix            0      0.00%     66.50% # Class of committed instruction
system.cpu1.commit.op_class_0::SimdSha1Hash            0      0.00%     66.50% # Class of committed instruction
system.cpu1.commit.op_class_0::SimdSha1Hash2            0      0.00%     66.50% # Class of committed instruction
system.cpu1.commit.op_class_0::SimdSha256Hash            0      0.00%     66.50% # Class of committed instruction
system.cpu1.commit.op_class_0::SimdSha256Hash2            0      0.00%     66.50% # Class of committed instruction
system.cpu1.commit.op_class_0::SimdShaSigma2            0      0.00%     66.50% # Class of committed instruction
system.cpu1.commit.op_class_0::SimdShaSigma3            0      0.00%     66.50% # Class of committed instruction
system.cpu1.commit.op_class_0::SimdPredAlu            0      0.00%     66.50% # Class of committed instruction
system.cpu1.commit.op_class_0::MemRead       17801871     25.90%     92.40% # Class of committed instruction
system.cpu1.commit.op_class_0::MemWrite       5224583      7.60%    100.00% # Class of committed instruction
system.cpu1.commit.op_class_0::FloatMemRead            0      0.00%    100.00% # Class of committed instruction
system.cpu1.commit.op_class_0::FloatMemWrite           12      0.00%    100.00% # Class of committed instruction
system.cpu1.commit.op_class_0::IprAccess            0      0.00%    100.00% # Class of committed instruction
system.cpu1.commit.op_class_0::InstPrefetch            0      0.00%    100.00% # Class of committed instruction
system.cpu1.commit.op_class_0::total         68727727                       # Class of committed instruction
system.cpu1.commit.refs                      23026466                       # Number of memory references committed
system.cpu1.commit.swp_count                        0                       # Number of s/w prefetches committed
system.cpu1.commit.vec_insts                        0                       # Number of committed Vector instructions.
system.cpu1.committedInsts                   67677257                       # Number of Instructions Simulated
system.cpu1.committedOps                     68727727                       # Number of Ops (including micro ops) Simulated
system.cpu1.cpi                              4.497586                       # CPI: Cycles Per Instruction
system.cpu1.cpi_total                        4.497586                       # CPI: Total CPI of All Threads
system.cpu1.decode.BlockedCycles            242477264                       # Number of cycles decode is blocked
system.cpu1.decode.BranchMispred               496791                       # Number of times decode detected a branch misprediction
system.cpu1.decode.BranchResolved            11653096                       # Number of times decode resolved a branch
system.cpu1.decode.DecodedInsts              84290769                       # Number of instructions handled by decode
system.cpu1.decode.IdleCycles                16618382                       # Number of cycles decode is idle
system.cpu1.decode.RunCycles                 40525257                       # Number of cycles decode is running
system.cpu1.decode.SquashCycles               1329562                       # Number of cycles decode is squashing
system.cpu1.decode.SquashedInsts              1229895                       # Number of squashed instructions handled by decode
system.cpu1.decode.UnblockCycles              2495684                       # Number of cycles decode is unblocking
system.cpu1.dtb.accesses                            0                       # DTB accesses
system.cpu1.dtb.hits                                0                       # DTB hits
system.cpu1.dtb.misses                              0                       # DTB misses
system.cpu1.dtb.read_accesses                       0                       # DTB read accesses
system.cpu1.dtb.read_hits                           0                       # DTB read hits
system.cpu1.dtb.read_misses                         0                       # DTB read misses
system.cpu1.dtb.write_accesses                      0                       # DTB write accesses
system.cpu1.dtb.write_hits                          0                       # DTB write hits
system.cpu1.dtb.write_misses                        0                       # DTB write misses
system.cpu1.fetch.Branches                   21039483                       # Number of branches that fetch encountered
system.cpu1.fetch.CacheLines                 14681328                       # Number of cache lines fetched
system.cpu1.fetch.Cycles                    284824519                       # Number of cycles fetch has run and was not squashing or blocked
system.cpu1.fetch.IcacheSquashes               326364                       # Number of outstanding Icache misses that were squashed
system.cpu1.fetch.IcacheWaitRetryStallCycles            9                       # Number of stall cycles due to full MSHR
system.cpu1.fetch.Insts                      88311550                       # Number of instructions fetch has processed
system.cpu1.fetch.MiscStallCycles                   2                       # Number of cycles fetch has spent waiting on interrupts, or bad addresses, or out of MSHRs
system.cpu1.fetch.SquashCycles                3594862                       # Number of cycles fetch has spent squashing
system.cpu1.fetch.branchRate                 0.069121                       # Number of branch fetches per cycle
system.cpu1.fetch.icacheStallCycles          16824188                       # Number of cycles fetch is stalled on an Icache miss
system.cpu1.fetch.predictedBranches          12993533                       # Number of branches that fetch has predicted taken
system.cpu1.fetch.rate                       0.290132                       # Number of inst fetches per cycle
system.cpu1.fetch.rateDist::samples         303446149                       # Number of instructions fetched each cycle (Total)
system.cpu1.fetch.rateDist::mean             0.294495                       # Number of instructions fetched each cycle (Total)
system.cpu1.fetch.rateDist::stdev            0.715817                       # Number of instructions fetched each cycle (Total)
system.cpu1.fetch.rateDist::underflows              0      0.00%      0.00% # Number of instructions fetched each cycle (Total)
system.cpu1.fetch.rateDist::0               246176936     81.13%     81.13% # Number of instructions fetched each cycle (Total)
system.cpu1.fetch.rateDist::1                36298395     11.96%     93.09% # Number of instructions fetched each cycle (Total)
system.cpu1.fetch.rateDist::2                12070214      3.98%     97.07% # Number of instructions fetched each cycle (Total)
system.cpu1.fetch.rateDist::3                 7284386      2.40%     99.47% # Number of instructions fetched each cycle (Total)
system.cpu1.fetch.rateDist::4                 1180967      0.39%     99.86% # Number of instructions fetched each cycle (Total)
system.cpu1.fetch.rateDist::5                  265107      0.09%     99.94% # Number of instructions fetched each cycle (Total)
system.cpu1.fetch.rateDist::6                  169646      0.06%    100.00% # Number of instructions fetched each cycle (Total)
system.cpu1.fetch.rateDist::7                      10      0.00%    100.00% # Number of instructions fetched each cycle (Total)
system.cpu1.fetch.rateDist::8                     488      0.00%    100.00% # Number of instructions fetched each cycle (Total)
system.cpu1.fetch.rateDist::overflows               0      0.00%    100.00% # Number of instructions fetched each cycle (Total)
system.cpu1.fetch.rateDist::min_value               0                       # Number of instructions fetched each cycle (Total)
system.cpu1.fetch.rateDist::max_value               8                       # Number of instructions fetched each cycle (Total)
system.cpu1.fetch.rateDist::total           303446149                       # Number of instructions fetched each cycle (Total)
system.cpu1.fp_regfile_reads                       12                       # number of floating regfile reads
system.cpu1.idleCycles                         938161                       # Total number of cycles that the CPU has spent unscheduled due to idling
system.cpu1.iew.branchMispredicts             1392773                       # Number of branch mispredicts detected at execute
system.cpu1.iew.exec_branches                17806867                       # Number of branches executed
system.cpu1.iew.exec_nop                            0                       # number of nop insts executed
system.cpu1.iew.exec_rate                    0.250605                       # Inst execution rate
system.cpu1.iew.exec_refs                    25872181                       # number of memory reference insts executed
system.cpu1.iew.exec_stores                   6632334                       # Number of stores executed
system.cpu1.iew.exec_swp                            0                       # number of swp insts executed
system.cpu1.iew.iewBlockCycles              203838102                       # Number of cycles IEW is blocking
system.cpu1.iew.iewDispLoadInsts             19708776                       # Number of dispatched load instructions
system.cpu1.iew.iewDispNonSpecInsts           1051140                       # Number of dispatched non-speculative instructions
system.cpu1.iew.iewDispSquashedInsts          1378051                       # Number of squashed instructions skipped by dispatch
system.cpu1.iew.iewDispStoreInsts             6981381                       # Number of dispatched store instructions
system.cpu1.iew.iewDispatchedInsts           79728338                       # Number of instructions dispatched to IQ
system.cpu1.iew.iewExecLoadInsts             19239847                       # Number of load instructions executed
system.cpu1.iew.iewExecSquashedInsts          1316108                       # Number of squashed instructions skipped in execute
system.cpu1.iew.iewExecutedInsts             76280149                       # Number of executed instructions
system.cpu1.iew.iewIQFullEvents                939504                       # Number of times the IQ has become full, causing a stall
system.cpu1.iew.iewIdleCycles                       0                       # Number of cycles IEW is idle
system.cpu1.iew.iewLSQFullEvents              3983847                       # Number of times the LSQ has become full, causing a stall
system.cpu1.iew.iewSquashCycles               1329562                       # Number of cycles IEW is squashing
system.cpu1.iew.iewUnblockCycles              6090234                       # Number of cycles IEW is unblocking
system.cpu1.iew.lsq.thread0.blockedLoads            0                       # Number of blocked loads due to partial load-store forwarding
system.cpu1.iew.lsq.thread0.cacheBlocked        67006                       # Number of times an access to memory failed due to the cache being blocked
system.cpu1.iew.lsq.thread0.forwLoads          724820                       # Number of loads that had data forwarded from stores
system.cpu1.iew.lsq.thread0.ignoredResponses        32749                       # Number of memory responses ignored because the instruction is squashed
system.cpu1.iew.lsq.thread0.invAddrLoads            0                       # Number of loads ignored due to an invalid address
system.cpu1.iew.lsq.thread0.invAddrSwpfs            0                       # Number of software prefetches ignored due to an invalid address
system.cpu1.iew.lsq.thread0.memOrderViolation         1957                       # Number of memory ordering violations
system.cpu1.iew.lsq.thread0.rescheduledLoads        10875                       # Number of loads that were rescheduled
system.cpu1.iew.lsq.thread0.squashedLoads      2957145                       # Number of loads squashed
system.cpu1.iew.lsq.thread0.squashedStores       706546                       # Number of stores squashed
system.cpu1.iew.memOrderViolationEvents          1957                       # Number of memory order violations
system.cpu1.iew.predictedNotTakenIncorrect       405108                       # Number of branches that were predicted not taken incorrectly
system.cpu1.iew.predictedTakenIncorrect        987665                       # Number of branches that were predicted taken incorrectly
system.cpu1.iew.wb_consumers                 43618616                       # num instructions consuming a value
system.cpu1.iew.wb_count                     75199165                       # cumulative count of insts written-back
system.cpu1.iew.wb_fanout                    0.824030                       # average fanout of values written-back
system.cpu1.iew.wb_producers                 35943050                       # num instructions producing a value
system.cpu1.iew.wb_rate                      0.247053                       # insts written-back per cycle
system.cpu1.iew.wb_sent                      75249897                       # cumulative count of insts sent to commit
system.cpu1.int_regfile_reads                96917982                       # number of integer regfile reads
system.cpu1.int_regfile_writes               50381863                       # number of integer regfile writes
system.cpu1.ipc                              0.222341                       # IPC: Instructions Per Cycle
system.cpu1.ipc_total                        0.222341                       # IPC: Total IPC of All Threads
system.cpu1.iq.FU_type_0::No_OpClass          2100785      2.71%      2.71% # Type of FU issued
system.cpu1.iq.FU_type_0::IntAlu             49213080     63.42%     66.13% # Type of FU issued
system.cpu1.iq.FU_type_0::IntMult                  55      0.00%     66.13% # Type of FU issued
system.cpu1.iq.FU_type_0::IntDiv                   90      0.00%     66.13% # Type of FU issued
system.cpu1.iq.FU_type_0::FloatAdd                  0      0.00%     66.13% # Type of FU issued
system.cpu1.iq.FU_type_0::FloatCmp                  0      0.00%     66.13% # Type of FU issued
system.cpu1.iq.FU_type_0::FloatCvt                  0      0.00%     66.13% # Type of FU issued
system.cpu1.iq.FU_type_0::FloatMult                 0      0.00%     66.13% # Type of FU issued
system.cpu1.iq.FU_type_0::FloatMultAcc              0      0.00%     66.13% # Type of FU issued
system.cpu1.iq.FU_type_0::FloatDiv                  0      0.00%     66.13% # Type of FU issued
system.cpu1.iq.FU_type_0::FloatMisc                 0      0.00%     66.13% # Type of FU issued
system.cpu1.iq.FU_type_0::FloatSqrt                 0      0.00%     66.13% # Type of FU issued
system.cpu1.iq.FU_type_0::SimdAdd                   0      0.00%     66.13% # Type of FU issued
system.cpu1.iq.FU_type_0::SimdAddAcc                0      0.00%     66.13% # Type of FU issued
system.cpu1.iq.FU_type_0::SimdAlu                   0      0.00%     66.13% # Type of FU issued
system.cpu1.iq.FU_type_0::SimdCmp                   0      0.00%     66.13% # Type of FU issued
system.cpu1.iq.FU_type_0::SimdCvt                   0      0.00%     66.13% # Type of FU issued
system.cpu1.iq.FU_type_0::SimdMisc                  0      0.00%     66.13% # Type of FU issued
system.cpu1.iq.FU_type_0::SimdMult                  0      0.00%     66.13% # Type of FU issued
system.cpu1.iq.FU_type_0::SimdMultAcc               0      0.00%     66.13% # Type of FU issued
system.cpu1.iq.FU_type_0::SimdShift                 0      0.00%     66.13% # Type of FU issued
system.cpu1.iq.FU_type_0::SimdShiftAcc              0      0.00%     66.13% # Type of FU issued
system.cpu1.iq.FU_type_0::SimdDiv                   0      0.00%     66.13% # Type of FU issued
system.cpu1.iq.FU_type_0::SimdSqrt                  0      0.00%     66.13% # Type of FU issued
system.cpu1.iq.FU_type_0::SimdFloatAdd              0      0.00%     66.13% # Type of FU issued
system.cpu1.iq.FU_type_0::SimdFloatAlu              0      0.00%     66.13% # Type of FU issued
system.cpu1.iq.FU_type_0::SimdFloatCmp              0      0.00%     66.13% # Type of FU issued
system.cpu1.iq.FU_type_0::SimdFloatCvt              0      0.00%     66.13% # Type of FU issued
system.cpu1.iq.FU_type_0::SimdFloatDiv              0      0.00%     66.13% # Type of FU issued
system.cpu1.iq.FU_type_0::SimdFloatMisc             0      0.00%     66.13% # Type of FU issued
system.cpu1.iq.FU_type_0::SimdFloatMult             0      0.00%     66.13% # Type of FU issued
system.cpu1.iq.FU_type_0::SimdFloatMultAcc            0      0.00%     66.13% # Type of FU issued
system.cpu1.iq.FU_type_0::SimdFloatSqrt             0      0.00%     66.13% # Type of FU issued
system.cpu1.iq.FU_type_0::SimdReduceAdd             0      0.00%     66.13% # Type of FU issued
system.cpu1.iq.FU_type_0::SimdReduceAlu             0      0.00%     66.13% # Type of FU issued
system.cpu1.iq.FU_type_0::SimdReduceCmp             0      0.00%     66.13% # Type of FU issued
system.cpu1.iq.FU_type_0::SimdFloatReduceAdd            0      0.00%     66.13% # Type of FU issued
system.cpu1.iq.FU_type_0::SimdFloatReduceCmp            0      0.00%     66.13% # Type of FU issued
system.cpu1.iq.FU_type_0::SimdAes                   0      0.00%     66.13% # Type of FU issued
system.cpu1.iq.FU_type_0::SimdAesMix                0      0.00%     66.13% # Type of FU issued
system.cpu1.iq.FU_type_0::SimdSha1Hash              0      0.00%     66.13% # Type of FU issued
system.cpu1.iq.FU_type_0::SimdSha1Hash2             0      0.00%     66.13% # Type of FU issued
system.cpu1.iq.FU_type_0::SimdSha256Hash            0      0.00%     66.13% # Type of FU issued
system.cpu1.iq.FU_type_0::SimdSha256Hash2            0      0.00%     66.13% # Type of FU issued
system.cpu1.iq.FU_type_0::SimdShaSigma2             0      0.00%     66.13% # Type of FU issued
system.cpu1.iq.FU_type_0::SimdShaSigma3             0      0.00%     66.13% # Type of FU issued
system.cpu1.iq.FU_type_0::SimdPredAlu               0      0.00%     66.13% # Type of FU issued
system.cpu1.iq.FU_type_0::MemRead            20629957     26.59%     92.72% # Type of FU issued
system.cpu1.iq.FU_type_0::MemWrite            5652278      7.28%    100.00% # Type of FU issued
system.cpu1.iq.FU_type_0::FloatMemRead              0      0.00%    100.00% # Type of FU issued
system.cpu1.iq.FU_type_0::FloatMemWrite            12      0.00%    100.00% # Type of FU issued
system.cpu1.iq.FU_type_0::IprAccess                 0      0.00%    100.00% # Type of FU issued
system.cpu1.iq.FU_type_0::InstPrefetch              0      0.00%    100.00% # Type of FU issued
system.cpu1.iq.FU_type_0::total              77596257                       # Type of FU issued
system.cpu1.iq.fp_alu_accesses                     16                       # Number of floating point alu accesses
system.cpu1.iq.fp_inst_queue_reads                 28                       # Number of floating instruction queue reads
system.cpu1.iq.fp_inst_queue_wakeup_accesses           12                       # Number of floating instruction queue wakeup accesses
system.cpu1.iq.fp_inst_queue_writes                12                       # Number of floating instruction queue writes
system.cpu1.iq.fu_busy_cnt                    1534049                       # FU busy when requested
system.cpu1.iq.fu_busy_rate                  0.019770                       # FU busy rate (busy events/executed inst)
system.cpu1.iq.fu_full::No_OpClass                  0      0.00%      0.00% # attempts to use FU when none available
system.cpu1.iq.fu_full::IntAlu                 328130     21.39%     21.39% # attempts to use FU when none available
system.cpu1.iq.fu_full::IntMult                     0      0.00%     21.39% # attempts to use FU when none available
system.cpu1.iq.fu_full::IntDiv                      0      0.00%     21.39% # attempts to use FU when none available
system.cpu1.iq.fu_full::FloatAdd                    0      0.00%     21.39% # attempts to use FU when none available
system.cpu1.iq.fu_full::FloatCmp                    0      0.00%     21.39% # attempts to use FU when none available
system.cpu1.iq.fu_full::FloatCvt                    0      0.00%     21.39% # attempts to use FU when none available
system.cpu1.iq.fu_full::FloatMult                   0      0.00%     21.39% # attempts to use FU when none available
system.cpu1.iq.fu_full::FloatMultAcc                0      0.00%     21.39% # attempts to use FU when none available
system.cpu1.iq.fu_full::FloatDiv                    0      0.00%     21.39% # attempts to use FU when none available
system.cpu1.iq.fu_full::FloatMisc                   0      0.00%     21.39% # attempts to use FU when none available
system.cpu1.iq.fu_full::FloatSqrt                   0      0.00%     21.39% # attempts to use FU when none available
system.cpu1.iq.fu_full::SimdAdd                     0      0.00%     21.39% # attempts to use FU when none available
system.cpu1.iq.fu_full::SimdAddAcc                  0      0.00%     21.39% # attempts to use FU when none available
system.cpu1.iq.fu_full::SimdAlu                     0      0.00%     21.39% # attempts to use FU when none available
system.cpu1.iq.fu_full::SimdCmp                     0      0.00%     21.39% # attempts to use FU when none available
system.cpu1.iq.fu_full::SimdCvt                     0      0.00%     21.39% # attempts to use FU when none available
system.cpu1.iq.fu_full::SimdMisc                    0      0.00%     21.39% # attempts to use FU when none available
system.cpu1.iq.fu_full::SimdMult                    0      0.00%     21.39% # attempts to use FU when none available
system.cpu1.iq.fu_full::SimdMultAcc                 0      0.00%     21.39% # attempts to use FU when none available
system.cpu1.iq.fu_full::SimdShift                   0      0.00%     21.39% # attempts to use FU when none available
system.cpu1.iq.fu_full::SimdShiftAcc                0      0.00%     21.39% # attempts to use FU when none available
system.cpu1.iq.fu_full::SimdDiv                     0      0.00%     21.39% # attempts to use FU when none available
system.cpu1.iq.fu_full::SimdSqrt                    0      0.00%     21.39% # attempts to use FU when none available
system.cpu1.iq.fu_full::SimdFloatAdd                0      0.00%     21.39% # attempts to use FU when none available
system.cpu1.iq.fu_full::SimdFloatAlu                0      0.00%     21.39% # attempts to use FU when none available
system.cpu1.iq.fu_full::SimdFloatCmp                0      0.00%     21.39% # attempts to use FU when none available
system.cpu1.iq.fu_full::SimdFloatCvt                0      0.00%     21.39% # attempts to use FU when none available
system.cpu1.iq.fu_full::SimdFloatDiv                0      0.00%     21.39% # attempts to use FU when none available
system.cpu1.iq.fu_full::SimdFloatMisc               0      0.00%     21.39% # attempts to use FU when none available
system.cpu1.iq.fu_full::SimdFloatMult               0      0.00%     21.39% # attempts to use FU when none available
system.cpu1.iq.fu_full::SimdFloatMultAcc            0      0.00%     21.39% # attempts to use FU when none available
system.cpu1.iq.fu_full::SimdFloatSqrt               0      0.00%     21.39% # attempts to use FU when none available
system.cpu1.iq.fu_full::SimdReduceAdd               0      0.00%     21.39% # attempts to use FU when none available
system.cpu1.iq.fu_full::SimdReduceAlu               0      0.00%     21.39% # attempts to use FU when none available
system.cpu1.iq.fu_full::SimdReduceCmp               0      0.00%     21.39% # attempts to use FU when none available
system.cpu1.iq.fu_full::SimdFloatReduceAdd            0      0.00%     21.39% # attempts to use FU when none available
system.cpu1.iq.fu_full::SimdFloatReduceCmp            0      0.00%     21.39% # attempts to use FU when none available
system.cpu1.iq.fu_full::SimdAes                     0      0.00%     21.39% # attempts to use FU when none available
system.cpu1.iq.fu_full::SimdAesMix                  0      0.00%     21.39% # attempts to use FU when none available
system.cpu1.iq.fu_full::SimdSha1Hash                0      0.00%     21.39% # attempts to use FU when none available
system.cpu1.iq.fu_full::SimdSha1Hash2               0      0.00%     21.39% # attempts to use FU when none available
system.cpu1.iq.fu_full::SimdSha256Hash              0      0.00%     21.39% # attempts to use FU when none available
system.cpu1.iq.fu_full::SimdSha256Hash2             0      0.00%     21.39% # attempts to use FU when none available
system.cpu1.iq.fu_full::SimdShaSigma2               0      0.00%     21.39% # attempts to use FU when none available
system.cpu1.iq.fu_full::SimdShaSigma3               0      0.00%     21.39% # attempts to use FU when none available
system.cpu1.iq.fu_full::SimdPredAlu                 0      0.00%     21.39% # attempts to use FU when none available
system.cpu1.iq.fu_full::MemRead                962880     62.77%     84.16% # attempts to use FU when none available
[...]
system.cpu1.dcache.WriteReq_mshr_miss_latency::total  12304402984                       # number of WriteReq MSHR miss cycles
system.cpu1.dcache.WriteReq_mshr_miss_rate::.cpu1.data     0.047033                       # mshr miss rate for WriteReq accesses
system.cpu1.dcache.WriteReq_mshr_miss_rate::total     0.047033                       # mshr miss rate for WriteReq accesses
system.cpu1.dcache.WriteReq_avg_mshr_miss_latency::.cpu1.data 110754.689494                       # average WriteReq mshr miss latency
system.cpu1.dcache.WriteReq_avg_mshr_miss_latency::total 110754.689494                       # average WriteReq mshr miss latency
system.cpu1.dcache.LoadLockedReq_hits::.cpu1.data        16880                       # number of LoadLockedReq hits
system.cpu1.dcache.LoadLockedReq_hits::total        16880                       # number of LoadLockedReq hits
system.cpu1.dcache.LoadLockedReq_misses::.cpu1.data          683                       # number of LoadLockedReq misses
system.cpu1.dcache.LoadLockedReq_misses::total          683                       # number of LoadLockedReq misses
system.cpu1.dcache.LoadLockedReq_miss_latency::.cpu1.data     20219000                       # number of LoadLockedReq miss cycles
system.cpu1.dcache.LoadLockedReq_miss_latency::total     20219000                       # number of LoadLockedReq miss cycles
system.cpu1.dcache.LoadLockedReq_accesses::.cpu1.data        17563                       # number of LoadLockedReq accesses(hits+misses)
system.cpu1.dcache.LoadLockedReq_accesses::total        17563                       # number of LoadLockedReq accesses(hits+misses)
system.cpu1.dcache.LoadLockedReq_miss_rate::.cpu1.data     0.038889                       # miss rate for LoadLockedReq accesses
system.cpu1.dcache.LoadLockedReq_miss_rate::total     0.038889                       # miss rate for LoadLockedReq accesses
system.cpu1.dcache.LoadLockedReq_avg_miss_latency::.cpu1.data 29603.221083                       # average LoadLockedReq miss latency
system.cpu1.dcache.LoadLockedReq_avg_miss_latency::total 29603.221083                       # average LoadLockedReq miss latency
system.cpu1.dcache.LoadLockedReq_mshr_hits::.cpu1.data          157                       # number of LoadLockedReq MSHR hits
system.cpu1.dcache.LoadLockedReq_mshr_hits::total          157                       # number of LoadLockedReq MSHR hits
system.cpu1.dcache.LoadLockedReq_mshr_misses::.cpu1.data          526                       # number of LoadLockedReq MSHR misses
system.cpu1.dcache.LoadLockedReq_mshr_misses::total          526                       # number of LoadLockedReq MSHR misses
system.cpu1.dcache.LoadLockedReq_mshr_miss_latency::.cpu1.data     13520500                       # number of LoadLockedReq MSHR miss cycles
system.cpu1.dcache.LoadLockedReq_mshr_miss_latency::total     13520500                       # number of LoadLockedReq MSHR miss cycles
system.cpu1.dcache.LoadLockedReq_mshr_miss_rate::.cpu1.data     0.029949                       # mshr miss rate for LoadLockedReq accesses
system.cpu1.dcache.LoadLockedReq_mshr_miss_rate::total     0.029949                       # mshr miss rate for LoadLockedReq accesses
system.cpu1.dcache.LoadLockedReq_avg_mshr_miss_latency::.cpu1.data 25704.372624                       # average LoadLockedReq mshr miss latency
system.cpu1.dcache.LoadLockedReq_avg_mshr_miss_latency::total 25704.372624                       # average LoadLockedReq mshr miss latency
system.cpu1.dcache.StoreCondReq_hits::.cpu1.data        16056                       # number of StoreCondReq hits
system.cpu1.dcache.StoreCondReq_hits::total        16056                       # number of StoreCondReq hits
system.cpu1.dcache.StoreCondReq_misses::.cpu1.data          767                       # number of StoreCondReq misses
system.cpu1.dcache.StoreCondReq_misses::total          767                       # number of StoreCondReq misses
system.cpu1.dcache.StoreCondReq_miss_latency::.cpu1.data      6148000                       # number of StoreCondReq miss cycles
system.cpu1.dcache.StoreCondReq_miss_latency::total      6148000                       # number of StoreCondReq miss cycles
system.cpu1.dcache.StoreCondReq_accesses::.cpu1.data        16823                       # number of StoreCondReq accesses(hits+misses)
system.cpu1.dcache.StoreCondReq_accesses::total        16823                       # number of StoreCondReq accesses(hits+misses)
system.cpu1.dcache.StoreCondReq_miss_rate::.cpu1.data     0.045592                       # miss rate for StoreCondReq accesses
system.cpu1.dcache.StoreCondReq_miss_rate::total     0.045592                       # miss rate for StoreCondReq accesses
system.cpu1.dcache.StoreCondReq_avg_miss_latency::.cpu1.data  8015.645372                       # average StoreCondReq miss latency
system.cpu1.dcache.StoreCondReq_avg_miss_latency::total  8015.645372                       # average StoreCondReq miss latency
system.cpu1.dcache.StoreCondReq_mshr_misses::.cpu1.data          761                       # number of StoreCondReq MSHR misses
system.cpu1.dcache.StoreCondReq_mshr_misses::total          761                       # number of StoreCondReq MSHR misses
system.cpu1.dcache.StoreCondReq_mshr_miss_latency::.cpu1.data      5462000                       # number of StoreCondReq MSHR miss cycles
system.cpu1.dcache.StoreCondReq_mshr_miss_latency::total      5462000                       # number of StoreCondReq MSHR miss cycles
system.cpu1.dcache.StoreCondReq_mshr_miss_rate::.cpu1.data     0.045236                       # mshr miss rate for StoreCondReq accesses
system.cpu1.dcache.StoreCondReq_mshr_miss_rate::total     0.045236                       # mshr miss rate for StoreCondReq accesses
system.cpu1.dcache.StoreCondReq_avg_mshr_miss_latency::.cpu1.data  7177.398160                       # average StoreCondReq mshr miss latency
system.cpu1.dcache.StoreCondReq_avg_mshr_miss_latency::total  7177.398160                       # average StoreCondReq mshr miss latency
system.cpu1.dcache.StoreCondFailReq_miss_latency::.cpu1.data      1483500                       # number of StoreCondFailReq miss cycles
system.cpu1.dcache.StoreCondFailReq_miss_latency::total      1483500                       # number of StoreCondFailReq miss cycles
system.cpu1.dcache.StoreCondFailReq_avg_miss_latency::.cpu1.data          inf                       # average StoreCondFailReq miss latency
system.cpu1.dcache.StoreCondFailReq_avg_miss_latency::total          inf                       # average StoreCondFailReq miss latency
system.cpu1.dcache.StoreCondFailReq_mshr_miss_latency::.cpu1.data      1408500                       # number of StoreCondFailReq MSHR miss cycles
system.cpu1.dcache.StoreCondFailReq_mshr_miss_latency::total      1408500                       # number of StoreCondFailReq MSHR miss cycles
system.cpu1.dcache.StoreCondFailReq_avg_mshr_miss_latency::.cpu1.data          inf                       # average StoreCondFailReq mshr miss latency
system.cpu1.dcache.StoreCondFailReq_avg_mshr_miss_latency::total          inf                       # average StoreCondFailReq mshr miss latency
system.cpu1.dcache.SwapReq_hits::.cpu1.data          652                       # number of SwapReq hits
system.cpu1.dcache.SwapReq_hits::total            652                       # number of SwapReq hits
system.cpu1.dcache.SwapReq_misses::.cpu1.data         1294                       # number of SwapReq misses
system.cpu1.dcache.SwapReq_misses::total         1294                       # number of SwapReq misses
system.cpu1.dcache.SwapReq_miss_latency::.cpu1.data     14312500                       # number of SwapReq miss cycles
system.cpu1.dcache.SwapReq_miss_latency::total     14312500                       # number of SwapReq miss cycles
system.cpu1.dcache.SwapReq_accesses::.cpu1.data         1946                       # number of SwapReq accesses(hits+misses)
system.cpu1.dcache.SwapReq_accesses::total         1946                       # number of SwapReq accesses(hits+misses)
system.cpu1.dcache.SwapReq_miss_rate::.cpu1.data     0.664954                       # miss rate for SwapReq accesses
system.cpu1.dcache.SwapReq_miss_rate::total     0.664954                       # miss rate for SwapReq accesses
system.cpu1.dcache.SwapReq_avg_miss_latency::.cpu1.data 11060.664606                       # average SwapReq miss latency
system.cpu1.dcache.SwapReq_avg_miss_latency::total 11060.664606                       # average SwapReq miss latency
system.cpu1.dcache.SwapReq_mshr_misses::.cpu1.data         1294                       # number of SwapReq MSHR misses
system.cpu1.dcache.SwapReq_mshr_misses::total         1294                       # number of SwapReq MSHR misses
system.cpu1.dcache.SwapReq_mshr_miss_latency::.cpu1.data     13018500                       # number of SwapReq MSHR miss cycles
system.cpu1.dcache.SwapReq_mshr_miss_latency::total     13018500                       # number of SwapReq MSHR miss cycles
system.cpu1.dcache.SwapReq_mshr_miss_rate::.cpu1.data     0.664954                       # mshr miss rate for SwapReq accesses
system.cpu1.dcache.SwapReq_mshr_miss_rate::total     0.664954                       # mshr miss rate for SwapReq accesses
system.cpu1.dcache.SwapReq_avg_mshr_miss_latency::.cpu1.data 10060.664606                       # average SwapReq mshr miss latency
system.cpu1.dcache.SwapReq_avg_mshr_miss_latency::total 10060.664606                       # average SwapReq mshr miss latency
system.cpu1.dcache.tags.pwrStateResidencyTicks::UNDEFINED  44587500500                       # Cumulative time (in ticks) in various power states
system.cpu1.dcache.tags.tagsinuse           31.427686                       # Cycle average of tags in use
system.cpu1.dcache.tags.total_refs            7956532                       # Total number of references to valid blocks.
system.cpu1.dcache.tags.sampled_refs           498468                       # Sample count of references to valid blocks.
system.cpu1.dcache.tags.avg_refs            15.961971                       # Average number of references to valid blocks.
system.cpu1.dcache.tags.warmup_cycle                0                       # Cycle when the warmup percentage was hit.
system.cpu1.dcache.tags.occ_blocks::.cpu1.data    31.427686                       # Average occupied blocks per requestor
system.cpu1.dcache.tags.occ_percent::.cpu1.data     0.982115                       # Average percentage of cache occupancy
system.cpu1.dcache.tags.occ_percent::total     0.982115                       # Average percentage of cache occupancy
system.cpu1.dcache.tags.occ_task_id_blocks::1024           28                       # Occupied blocks per task id
system.cpu1.dcache.tags.age_task_id_blocks_1024::1           28                       # Occupied blocks per task id
system.cpu1.dcache.tags.occ_task_id_percent::1024     0.875000                       # Percentage of cache occupancy per task id
system.cpu1.dcache.tags.tag_accesses         25464139                       # Number of tag accesses
system.cpu1.dcache.tags.data_accesses        25464139                       # Number of data accesses
system.cpu_clk_domain.clock                       500                       # Clock period in ticks
system.tol2bus.pwrStateResidencyTicks::UNDEFINED  44587500500                       # Cumulative time (in ticks) in various power states
system.tol2bus.trans_dist::ReadResp           1688399                       # Transaction distribution
system.tol2bus.trans_dist::ReadRespWithInvalidate           12                       # Transaction distribution
system.tol2bus.trans_dist::WritebackDirty      1869966                       # Transaction distribution
system.tol2bus.trans_dist::WritebackClean      1217432                       # Transaction distribution
system.tol2bus.trans_dist::CleanEvict         3603763                       # Transaction distribution
system.tol2bus.trans_dist::HardPFReq          1457893                       # Transaction distribution
system.tol2bus.trans_dist::UpgradeReq            5048                       # Transaction distribution
system.tol2bus.trans_dist::SCUpgradeReq          3610                       # Transaction distribution
system.tol2bus.trans_dist::UpgradeResp           8658                       # Transaction distribution
system.tol2bus.trans_dist::SCUpgradeFailReq          237                       # Transaction distribution
system.tol2bus.trans_dist::UpgradeFailResp          237                       # Transaction distribution
system.tol2bus.trans_dist::ReadExReq           479003                       # Transaction distribution
system.tol2bus.trans_dist::ReadExResp          479003                       # Transaction distribution
system.tol2bus.trans_dist::ReadCleanReq        119458                       # Transaction distribution
system.tol2bus.trans_dist::ReadSharedReq      1568952                       # Transaction distribution
system.tol2bus.trans_dist::InvalidateReq         3293                       # Transaction distribution
system.tol2bus.trans_dist::InvalidateResp         3293                       # Transaction distribution
system.tol2bus.pkt_count_system.cpu0.icache.mem_side::system.l2.cpu_side       217460                       # Packet count per connected master and slave (bytes)
system.tol2bus.pkt_count_system.cpu0.dcache.mem_side::system.l2.cpu_side      1657846                       # Packet count per connected master and slave (bytes)
system.tol2bus.pkt_count_system.cpu1.icache.mem_side::system.l2.cpu_side        47364                       # Packet count per connected master and slave (bytes)
system.tol2bus.pkt_count_system.cpu1.dcache.mem_side::system.l2.cpu_side      1490039                       # Packet count per connected master and slave (bytes)
system.tol2bus.pkt_count_system.cpu2.icache.mem_side::system.l2.cpu_side        47103                       # Packet count per connected master and slave (bytes)
system.tol2bus.pkt_count_system.cpu2.dcache.mem_side::system.l2.cpu_side      1487473                       # Packet count per connected master and slave (bytes)
system.tol2bus.pkt_count_system.cpu3.icache.mem_side::system.l2.cpu_side        46449                       # Packet count per connected master and slave (bytes)
system.tol2bus.pkt_count_system.cpu3.dcache.mem_side::system.l2.cpu_side      1500390                       # Packet count per connected master and slave (bytes)
system.tol2bus.pkt_count::total               6494124                       # Packet count per connected master and slave (bytes)
system.tol2bus.pkt_size_system.cpu0.icache.mem_side::system.l2.cpu_side      9278336                       # Cumulative packet size per connected master and slave (bytes)
system.tol2bus.pkt_size_system.cpu0.dcache.mem_side::system.l2.cpu_side     70255424                       # Cumulative packet size per connected master and slave (bytes)
system.tol2bus.pkt_size_system.cpu1.icache.mem_side::system.l2.cpu_side      2020864                       # Cumulative packet size per connected master and slave (bytes)
system.tol2bus.pkt_size_system.cpu1.dcache.mem_side::system.l2.cpu_side     63311616                       # Cumulative packet size per connected master and slave (bytes)
system.tol2bus.pkt_size_system.cpu2.icache.mem_side::system.l2.cpu_side      2009728                       # Cumulative packet size per connected master and slave (bytes)
system.tol2bus.pkt_size_system.cpu2.dcache.mem_side::system.l2.cpu_side     63190464                       # Cumulative packet size per connected master and slave (bytes)
system.tol2bus.pkt_size_system.cpu3.icache.mem_side::system.l2.cpu_side      1981824                       # Cumulative packet size per connected master and slave (bytes)
system.tol2bus.pkt_size_system.cpu3.dcache.mem_side::system.l2.cpu_side     63739264                       # Cumulative packet size per connected master and slave (bytes)
system.tol2bus.pkt_size::total              275787520                       # Cumulative packet size per connected master and slave (bytes)
system.tol2bus.snoops                         6014133                       # Total snoops (count)
system.tol2bus.snoopTraffic                  60535616                       # Total snoop traffic (bytes)
system.tol2bus.snoop_fanout::samples          8174343                       # Request fanout histogram
system.tol2bus.snoop_fanout::mean            0.258739                       # Request fanout histogram
system.tol2bus.snoop_fanout::stdev           0.501013                       # Request fanout histogram
system.tol2bus.snoop_fanout::underflows             0      0.00%      0.00% # Request fanout histogram
system.tol2bus.snoop_fanout::0                6217027     76.06%     76.06% # Request fanout histogram
system.tol2bus.snoop_fanout::1                1868729     22.86%     98.92% # Request fanout histogram
system.tol2bus.snoop_fanout::2                  34700      0.42%     99.34% # Request fanout histogram
system.tol2bus.snoop_fanout::3                  38658      0.47%     99.81% # Request fanout histogram
system.tol2bus.snoop_fanout::4                  15229      0.19%    100.00% # Request fanout histogram
system.tol2bus.snoop_fanout::5                      0      0.00%    100.00% # Request fanout histogram
system.tol2bus.snoop_fanout::6                      0      0.00%    100.00% # Request fanout histogram
system.tol2bus.snoop_fanout::7                      0      0.00%    100.00% # Request fanout histogram
system.tol2bus.snoop_fanout::8                      0      0.00%    100.00% # Request fanout histogram
system.tol2bus.snoop_fanout::overflows              0      0.00%    100.00% # Request fanout histogram
system.tol2bus.snoop_fanout::min_value              0                       # Request fanout histogram
system.tol2bus.snoop_fanout::max_value              4                       # Request fanout histogram
system.tol2bus.snoop_fanout::total            8174343                       # Request fanout histogram
system.tol2bus.reqLayer0.occupancy         4325377949                       # Layer occupancy (ticks)
system.tol2bus.reqLayer0.utilization              9.7                       # Layer utilization (%)
system.tol2bus.respLayer5.occupancy         748246698                       # Layer occupancy (ticks)
system.tol2bus.respLayer5.utilization             1.7                       # Layer utilization (%)
system.tol2bus.respLayer4.occupancy          25479182                       # Layer occupancy (ticks)
system.tol2bus.respLayer4.utilization             0.1                       # Layer utilization (%)
system.tol2bus.respLayer7.occupancy         754519894                       # Layer occupancy (ticks)
system.tol2bus.respLayer7.utilization             1.7                       # Layer utilization (%)
system.tol2bus.respLayer6.occupancy          24957273                       # Layer occupancy (ticks)
system.tol2bus.respLayer6.utilization             0.1                       # Layer utilization (%)
system.tol2bus.respLayer1.occupancy         828885994                       # Layer occupancy (ticks)
system.tol2bus.respLayer1.utilization             1.9                       # Layer utilization (%)
system.tol2bus.respLayer0.occupancy         108931030                       # Layer occupancy (ticks)
system.tol2bus.respLayer0.utilization             0.2                       # Layer utilization (%)
system.tol2bus.respLayer3.occupancy         749385695                       # Layer occupancy (ticks)
system.tol2bus.respLayer3.utilization             1.7                       # Layer utilization (%)
system.tol2bus.respLayer2.occupancy          25529011                       # Layer occupancy (ticks)
system.tol2bus.respLayer2.utilization             0.1                       # Layer utilization (%)

---------- End Simulation Statistics   ----------
