
---------- Begin Simulation Statistics ----------
final_tick                               1290294176000                       # Number of ticks from beginning of simulation (restored from checkpoints and never reset)
host_inst_rate                                 105952                       # Simulator instruction rate (inst/s)
host_mem_usage                                 702544                       # Number of bytes of host memory used
host_op_rate                                   106262                       # Simulator op (including micro ops) rate (op/s)
host_seconds                                 13559.10                       # Real time elapsed on the host
host_tick_rate                               95160746                       # Simulator tick rate (ticks/s)
sim_freq                                 1000000000000                       # Frequency of simulated ticks
sim_insts                                  1436619837                       # Number of instructions simulated
sim_ops                                    1440823586                       # Number of ops (including micro ops) simulated
sim_seconds                                  1.290294                       # Number of seconds simulated
sim_ticks                                1290294176000                       # Number of ticks simulated
system.cpu0.branchPred.BTBCorrect                   0                       # Number of correct BTB predictions (this stat may not work properly.
system.cpu0.branchPred.BTBHitPct            87.611297                       # BTB Hit Percentage
system.cpu0.branchPred.BTBHits              183574997                       # Number of BTB hits
system.cpu0.branchPred.BTBLookups           209533478                       # Number of BTB lookups
system.cpu0.branchPred.RASInCorrect                 0                       # Number of incorrect RAS predictions.
system.cpu0.branchPred.condIncorrect         17092976                       # Number of conditional branches incorrect
system.cpu0.branchPred.condPredicted        288578049                       # Number of conditional branches predicted
system.cpu0.branchPred.indirectHits          22148336                       # Number of indirect target hits.
system.cpu0.branchPred.indirectLookups       23684074                       # Number of indirect predictor lookups.
system.cpu0.branchPred.indirectMisses         1535738                       # Number of indirect misses.
system.cpu0.branchPred.lookups              363046785                       # Number of BP lookups
system.cpu0.branchPred.usedRAS                      0                       # Number of times the RAS was used to get a target.
system.cpu0.branchPredindirectMispredicted      2194644                       # Number of mispredicted indirect branches.
system.cpu0.commit.amos                       2100264                       # Number of atomic instructions committed
system.cpu0.commit.branchMispredicts         10756610                       # The number of times a branch was mispredicted
system.cpu0.commit.branches                 329546213                       # Number of branches committed
system.cpu0.commit.bw_lim_events             35091796                       # number cycles where commit BW limit reached
system.cpu0.commit.commitNonSpecStalls        6309713                       # The number of times commit has been forced to stall to communicate backwards
system.cpu0.commit.commitSquashedInsts      121343655                       # The number of squashed insts skipped by commit
system.cpu0.commit.committedInsts          1316552584                       # Number of instructions committed
system.cpu0.commit.committedOps            1318656151                       # Number of ops (including micro ops) committed
system.cpu0.commit.committed_per_cycle::samples   2394339943                       # Number of insts commited each cycle
system.cpu0.commit.committed_per_cycle::mean     0.550739                       # Number of insts commited each cycle
system.cpu0.commit.committed_per_cycle::stdev     1.299445                       # Number of insts commited each cycle
system.cpu0.commit.committed_per_cycle::underflows            0      0.00%      0.00% # Number of insts commited each cycle
system.cpu0.commit.committed_per_cycle::0   1751550020     73.15%     73.15% # Number of insts commited each cycle
system.cpu0.commit.committed_per_cycle::1    376646518     15.73%     88.88% # Number of insts commited each cycle
system.cpu0.commit.committed_per_cycle::2     99422233      4.15%     93.04% # Number of insts commited each cycle
system.cpu0.commit.committed_per_cycle::3     92622446      3.87%     96.91% # Number of insts commited each cycle
system.cpu0.commit.committed_per_cycle::4     23271117      0.97%     97.88% # Number of insts commited each cycle
system.cpu0.commit.committed_per_cycle::5      7370387      0.31%     98.19% # Number of insts commited each cycle
system.cpu0.commit.committed_per_cycle::6      3930924      0.16%     98.35% # Number of insts commited each cycle
system.cpu0.commit.committed_per_cycle::7      4434502      0.19%     98.53% # Number of insts commited each cycle
system.cpu0.commit.committed_per_cycle::8     35091796      1.47%    100.00% # Number of insts commited each cycle
system.cpu0.commit.committed_per_cycle::overflows            0      0.00%    100.00% # Number of insts commited each cycle
system.cpu0.commit.committed_per_cycle::min_value            0                       # Number of insts commited each cycle
system.cpu0.commit.committed_per_cycle::max_value            8                       # Number of insts commited each cycle
system.cpu0.commit.committed_per_cycle::total   2394339943                       # Number of insts commited each cycle
system.cpu0.commit.fp_insts                        50                       # Number of committed floating point instructions.
system.cpu0.commit.function_calls            25143413                       # Number of function calls committed.
system.cpu0.commit.int_insts               1273924270                       # Number of committed integer instructions.
system.cpu0.commit.loads                    405171532                       # Number of loads committed
system.cpu0.commit.membars                    4203720                       # Number of memory barriers committed
system.cpu0.commit.op_class_0::No_OpClass      4203726      0.32%      0.32% # Class of committed instruction
system.cpu0.commit.op_class_0::IntAlu       742064582     56.27%     56.59% # Class of committed instruction
system.cpu0.commit.op_class_0::IntMult       11831782      0.90%     57.49% # Class of committed instruction
system.cpu0.commit.op_class_0::IntDiv         2099835      0.16%     57.65% # Class of committed instruction
system.cpu0.commit.op_class_0::FloatAdd             0      0.00%     57.65% # Class of committed instruction
system.cpu0.commit.op_class_0::FloatCmp             4      0.00%     57.65% # Class of committed instruction
system.cpu0.commit.op_class_0::FloatCvt            12      0.00%     57.65% # Class of committed instruction
system.cpu0.commit.op_class_0::FloatMult            0      0.00%     57.65% # Class of committed instruction
system.cpu0.commit.op_class_0::FloatMultAcc            0      0.00%     57.65% # Class of committed instruction
system.cpu0.commit.op_class_0::FloatDiv             2      0.00%     57.65% # Class of committed instruction
system.cpu0.commit.op_class_0::FloatMisc            4      0.00%     57.65% # Class of committed instruction
system.cpu0.commit.op_class_0::FloatSqrt            0      0.00%     57.65% # Class of committed instruction
system.cpu0.commit.op_class_0::SimdAdd              0      0.00%     57.65% # Class of committed instruction
system.cpu0.commit.op_class_0::SimdAddAcc            0      0.00%     57.65% # Class of committed instruction
system.cpu0.commit.op_class_0::SimdAlu              0      0.00%     57.65% # Class of committed instruction
system.cpu0.commit.op_class_0::SimdCmp              0      0.00%     57.65% # Class of committed instruction
system.cpu0.commit.op_class_0::SimdCvt              0      0.00%     57.65% # Class of committed instruction
system.cpu0.commit.op_class_0::SimdMisc             0      0.00%     57.65% # Class of committed instruction
system.cpu0.commit.op_class_0::SimdMult             0      0.00%     57.65% # Class of committed instruction
system.cpu0.commit.op_class_0::SimdMultAcc            0      0.00%     57.65% # Class of committed instruction
system.cpu0.commit.op_class_0::SimdShift            0      0.00%     57.65% # Class of committed instruction
system.cpu0.commit.op_class_0::SimdShiftAcc            0      0.00%     57.65% # Class of committed instruction
system.cpu0.commit.op_class_0::SimdDiv              0      0.00%     57.65% # Class of committed instruction
system.cpu0.commit.op_class_0::SimdSqrt             0      0.00%     57.65% # Class of committed instruction
system.cpu0.commit.op_class_0::SimdFloatAdd            0      0.00%     57.65% # Class of committed instruction
system.cpu0.commit.op_class_0::SimdFloatAlu            0      0.00%     57.65% # Class of committed instruction
system.cpu0.commit.op_class_0::SimdFloatCmp            0      0.00%     57.65% # Class of committed instruction
system.cpu0.commit.op_class_0::SimdFloatCvt            0      0.00%     57.65% # Class of committed instruction
system.cpu0.commit.op_class_0::SimdFloatDiv            0      0.00%     57.65% # Class of committed instruction
system.cpu0.commit.op_class_0::SimdFloatMisc            0      0.00%     57.65% # Class of committed instruction
system.cpu0.commit.op_class_0::SimdFloatMult            0      0.00%     57.65% # Class of committed instruction
system.cpu0.commit.op_class_0::SimdFloatMultAcc            0      0.00%     57.65% # Class of committed instruction
system.cpu0.commit.op_class_0::SimdFloatSqrt            0      0.00%     57.65% # Class of committed instruction
system.cpu0.commit.op_class_0::SimdReduceAdd            0      0.00%     57.65% # Class of committed instruction
system.cpu0.commit.op_class_0::SimdReduceAlu            0      0.00%     57.65% # Class of committed instruction
system.cpu0.commit.op_class_0::SimdReduceCmp            0      0.00%     57.65% # Class of committed instruction
system.cpu0.commit.op_class_0::SimdFloatReduceAdd            0      0.00%     57.65% # Class of committed instruction
system.cpu0.commit.op_class_0::SimdFloatReduceCmp            0      0.00%     57.65% # Class of committed instruction
system.cpu0.commit.op_class_0::SimdAes              0      0.00%     57.65% # Class of committed instruction
system.cpu0.commit.op_class_0::SimdAesMix            0      0.00%     57.65% # Class of committed instruction
system.cpu0.commit.op_class_0::SimdSha1Hash            0      0.00%     57.65% # Class of committed instruction
system.cpu0.commit.op_class_0::SimdSha1Hash2            0      0.00%     57.65% # Class of committed instruction
system.cpu0.commit.op_class_0::SimdSha256Hash            0      0.00%     57.65% # Class of committed instruction
system.cpu0.commit.op_class_0::SimdSha256Hash2            0      0.00%     57.65% # Class of committed instruction
system.cpu0.commit.op_class_0::SimdShaSigma2            0      0.00%     57.65% # Class of committed instruction
system.cpu0.commit.op_class_0::SimdShaSigma3            0      0.00%     57.65% # Class of committed instruction
system.cpu0.commit.op_class_0::SimdPredAlu            0      0.00%     57.65% # Class of committed instruction
system.cpu0.commit.op_class_0::MemRead      407271788     30.89%     88.53% # Class of committed instruction
system.cpu0.commit.op_class_0::MemWrite     151184388     11.47%    100.00% # Class of committed instruction
system.cpu0.commit.op_class_0::FloatMemRead            8      0.00%    100.00% # Class of committed instruction
system.cpu0.commit.op_class_0::FloatMemWrite           20      0.00%    100.00% # Class of committed instruction
system.cpu0.commit.op_class_0::IprAccess            0      0.00%    100.00% # Class of committed instruction
system.cpu0.commit.op_class_0::InstPrefetch            0      0.00%    100.00% # Class of committed instruction
system.cpu0.commit.op_class_0::total       1318656151                       # Class of committed instruction
system.cpu0.commit.refs                     558456204                       # Number of memory references committed
system.cpu0.commit.swp_count                        0                       # Number of s/w prefetches committed
system.cpu0.commit.vec_insts                        0                       # Number of committed Vector instructions.
system.cpu0.committedInsts                 1316552584                       # Number of Instructions Simulated
system.cpu0.committedOps                   1318656151                       # Number of Ops (including micro ops) Simulated
system.cpu0.cpi                              1.956641                       # CPI: Cycles Per Instruction
system.cpu0.cpi_total                        1.956641                       # CPI: Total CPI of All Threads
system.cpu0.decode.BlockedCycles            420152686                       # Number of cycles decode is blocked
system.cpu0.decode.BranchMispred              6405323                       # Number of times decode detected a branch misprediction
system.cpu0.decode.BranchResolved           181018709                       # Number of times decode resolved a branch
system.cpu0.decode.DecodedInsts            1472893354                       # Number of instructions handled by decode
system.cpu0.decode.IdleCycles               984421692                       # Number of cycles decode is idle
system.cpu0.decode.RunCycles                994814700                       # Number of cycles decode is running
system.cpu0.decode.SquashCycles              10771226                       # Number of cycles decode is squashing
system.cpu0.decode.SquashedInsts             15576549                       # Number of squashed instructions handled by decode
system.cpu0.decode.UnblockCycles              6595906                       # Number of cycles decode is unblocking
system.cpu0.dtb.accesses                            0                       # DTB accesses
system.cpu0.dtb.hits                                0                       # DTB hits
system.cpu0.dtb.misses                              0                       # DTB misses
system.cpu0.dtb.read_accesses                       0                       # DTB read accesses
system.cpu0.dtb.read_hits                           0                       # DTB read hits
system.cpu0.dtb.read_misses                         0                       # DTB read misses
system.cpu0.dtb.write_accesses                      0                       # DTB write accesses
system.cpu0.dtb.write_hits                          0                       # DTB write hits
system.cpu0.dtb.write_misses                        0                       # DTB write misses
system.cpu0.fetch.Branches                  363046785                       # Number of branches that fetch encountered
system.cpu0.fetch.CacheLines                265278103                       # Number of cache lines fetched
system.cpu0.fetch.Cycles                   1437856885                       # Number of cycles fetch has run and was not squashing or blocked
system.cpu0.fetch.IcacheSquashes              4702320                       # Number of outstanding Icache misses that were squashed
system.cpu0.fetch.IcacheWaitRetryStallCycles           46                       # Number of stall cycles due to full MSHR
system.cpu0.fetch.Insts                    1516155365                       # Number of instructions fetch has processed
system.cpu0.fetch.MiscStallCycles                   8                       # Number of cycles fetch has spent waiting on interrupts, or bad addresses, or out of MSHRs
system.cpu0.fetch.SquashCycles               34215184                       # Number of cycles fetch has spent squashing
system.cpu0.fetch.branchRate                 0.140933                       # Number of branch fetches per cycle
system.cpu0.fetch.icacheStallCycles         961791679                       # Number of cycles fetch is stalled on an Icache miss
system.cpu0.fetch.predictedBranches         205723333                       # Number of branches that fetch has predicted taken
system.cpu0.fetch.rate                       0.588565                       # Number of inst fetches per cycle
system.cpu0.fetch.rateDist::samples        2416756210                       # Number of instructions fetched each cycle (Total)
system.cpu0.fetch.rateDist::mean             0.630553                       # Number of instructions fetched each cycle (Total)
system.cpu0.fetch.rateDist::stdev            0.921751                       # Number of instructions fetched each cycle (Total)
system.cpu0.fetch.rateDist::underflows              0      0.00%      0.00% # Number of instructions fetched each cycle (Total)
system.cpu0.fetch.rateDist::0              1364455822     56.46%     56.46% # Number of instructions fetched each cycle (Total)
system.cpu0.fetch.rateDist::1               767801960     31.77%     88.23% # Number of instructions fetched each cycle (Total)
system.cpu0.fetch.rateDist::2               147033934      6.08%     94.31% # Number of instructions fetched each cycle (Total)
system.cpu0.fetch.rateDist::3               110740443      4.58%     98.89% # Number of instructions fetched each cycle (Total)
system.cpu0.fetch.rateDist::4                13545103      0.56%     99.45% # Number of instructions fetched each cycle (Total)
system.cpu0.fetch.rateDist::5                 7663128      0.32%     99.77% # Number of instructions fetched each cycle (Total)
system.cpu0.fetch.rateDist::6                 1307790      0.05%     99.83% # Number of instructions fetched each cycle (Total)
system.cpu0.fetch.rateDist::7                 4204203      0.17%    100.00% # Number of instructions fetched each cycle (Total)
system.cpu0.fetch.rateDist::8                    3827      0.00%    100.00% # Number of instructions fetched each cycle (Total)
system.cpu0.fetch.rateDist::overflows               0      0.00%    100.00% # Number of instructions fetched each cycle (Total)
system.cpu0.fetch.rateDist::min_value               0                       # Number of instructions fetched each cycle (Total)
system.cpu0.fetch.rateDist::max_value               8                       # Number of instructions fetched each cycle (Total)
system.cpu0.fetch.rateDist::total          2416756210                       # Number of instructions fetched each cycle (Total)
system.cpu0.fp_regfile_reads                       44                       # number of floating regfile reads
system.cpu0.fp_regfile_writes                      23                       # number of floating regfile writes
system.cpu0.idleCycles                      159264427                       # Total number of cycles that the CPU has spent unscheduled due to idling
system.cpu0.iew.branchMispredicts            10878270                       # Number of branch mispredicts detected at execute
system.cpu0.iew.exec_branches               341548890                       # Number of branches executed
system.cpu0.iew.exec_nop                            0                       # number of nop insts executed
system.cpu0.iew.exec_rate                    0.537276                       # Inst execution rate
system.cpu0.iew.exec_refs                   589283282                       # number of memory reference insts executed
system.cpu0.iew.exec_stores                 158609384                       # Number of stores executed
system.cpu0.iew.exec_swp                            0                       # number of swp insts executed
system.cpu0.iew.iewBlockCycles              336137919                       # Number of cycles IEW is blocking
system.cpu0.iew.iewDispLoadInsts            446454100                       # Number of dispatched load instructions
system.cpu0.iew.iewDispNonSpecInsts           4922046                       # Number of dispatched non-speculative instructions
system.cpu0.iew.iewDispSquashedInsts          3135192                       # Number of squashed instructions skipped by dispatch
system.cpu0.iew.iewDispStoreInsts           166857811                       # Number of dispatched store instructions
system.cpu0.iew.iewDispatchedInsts         1439924352                       # Number of instructions dispatched to IQ
system.cpu0.iew.iewExecLoadInsts            430673898                       # Number of load instructions executed
system.cpu0.iew.iewExecSquashedInsts         10137342                       # Number of squashed instructions skipped in execute
system.cpu0.iew.iewExecutedInsts           1384032802                       # Number of executed instructions
system.cpu0.iew.iewIQFullEvents               1874098                       # Number of times the IQ has become full, causing a stall
system.cpu0.iew.iewIdleCycles                       0                       # Number of cycles IEW is idle
system.cpu0.iew.iewLSQFullEvents             14789514                       # Number of times the LSQ has become full, causing a stall
system.cpu0.iew.iewSquashCycles              10771226                       # Number of cycles IEW is squashing
system.cpu0.iew.iewUnblockCycles             18883027                       # Number of cycles IEW is unblocking
system.cpu0.iew.lsq.thread0.blockedLoads            0                       # Number of blocked loads due to partial load-store forwarding
system.cpu0.iew.lsq.thread0.cacheBlocked       206527                       # Number of times an access to memory failed due to the cache being blocked
system.cpu0.iew.lsq.thread0.forwLoads        21412588                       # Number of loads that had data forwarded from stores
system.cpu0.iew.lsq.thread0.ignoredResponses        31546                       # Number of memory responses ignored because the instruction is squashed
system.cpu0.iew.lsq.thread0.invAddrLoads            0                       # Number of loads ignored due to an invalid address
system.cpu0.iew.lsq.thread0.invAddrSwpfs            0                       # Number of software prefetches ignored due to an invalid address
system.cpu0.iew.lsq.thread0.memOrderViolation        14217                       # Number of memory ordering violations
system.cpu0.iew.lsq.thread0.rescheduledLoads      4754087                       # Number of loads that were rescheduled
system.cpu0.iew.lsq.thread0.squashedLoads     41282568                       # Number of loads squashed
system.cpu0.iew.lsq.thread0.squashedStores     13573139                       # Number of stores squashed
system.cpu0.iew.memOrderViolationEvents         14217                       # Number of memory order violations
system.cpu0.iew.predictedNotTakenIncorrect      1377958                       # Number of branches that were predicted not taken incorrectly
system.cpu0.iew.predictedTakenIncorrect       9500312                       # Number of branches that were predicted taken incorrectly
system.cpu0.iew.wb_consumers                586104983                       # num instructions consuming a value
system.cpu0.iew.wb_count                   1372433107                       # cumulative count of insts written-back
system.cpu0.iew.wb_fanout                    0.897598                       # average fanout of values written-back
system.cpu0.iew.wb_producers                526086680                       # num instructions producing a value
system.cpu0.iew.wb_rate                      0.532773                       # insts written-back per cycle
system.cpu0.iew.wb_sent                    1372539307                       # cumulative count of insts sent to commit
system.cpu0.int_regfile_reads              1701168174                       # number of integer regfile reads
system.cpu0.int_regfile_writes              882492502                       # number of integer regfile writes
system.cpu0.ipc                              0.511080                       # IPC: Instructions Per Cycle
system.cpu0.ipc_total                        0.511080                       # IPC: Total IPC of All Threads
system.cpu0.iq.FU_type_0::No_OpClass          4205588      0.30%      0.30% # Type of FU issued
system.cpu0.iq.FU_type_0::IntAlu            782265127     56.11%     56.41% # Type of FU issued
system.cpu0.iq.FU_type_0::IntMult            11834250      0.85%     57.26% # Type of FU issued
system.cpu0.iq.FU_type_0::IntDiv              2100431      0.15%     57.41% # Type of FU issued
system.cpu0.iq.FU_type_0::FloatAdd                  0      0.00%     57.41% # Type of FU issued
system.cpu0.iq.FU_type_0::FloatCmp                  4      0.00%     57.41% # Type of FU issued
system.cpu0.iq.FU_type_0::FloatCvt                 12      0.00%     57.41% # Type of FU issued
system.cpu0.iq.FU_type_0::FloatMult                 0      0.00%     57.41% # Type of FU issued
system.cpu0.iq.FU_type_0::FloatMultAcc              0      0.00%     57.41% # Type of FU issued
system.cpu0.iq.FU_type_0::FloatDiv                  2      0.00%     57.41% # Type of FU issued
system.cpu0.iq.FU_type_0::FloatMisc                 4      0.00%     57.41% # Type of FU issued
system.cpu0.iq.FU_type_0::FloatSqrt                 0      0.00%     57.41% # Type of FU issued
system.cpu0.iq.FU_type_0::SimdAdd                   0      0.00%     57.41% # Type of FU issued
system.cpu0.iq.FU_type_0::SimdAddAcc                0      0.00%     57.41% # Type of FU issued
system.cpu0.iq.FU_type_0::SimdAlu                   0      0.00%     57.41% # Type of FU issued
system.cpu0.iq.FU_type_0::SimdCmp                   0      0.00%     57.41% # Type of FU issued
system.cpu0.iq.FU_type_0::SimdCvt                   0      0.00%     57.41% # Type of FU issued
system.cpu0.iq.FU_type_0::SimdMisc                  0      0.00%     57.41% # Type of FU issued
system.cpu0.iq.FU_type_0::SimdMult                  0      0.00%     57.41% # Type of FU issued
system.cpu0.iq.FU_type_0::SimdMultAcc               0      0.00%     57.41% # Type of FU issued
system.cpu0.iq.FU_type_0::SimdShift                 0      0.00%     57.41% # Type of FU issued
system.cpu0.iq.FU_type_0::SimdShiftAcc              0      0.00%     57.41% # Type of FU issued
system.cpu0.iq.FU_type_0::SimdDiv                   0      0.00%     57.41% # Type of FU issued
system.cpu0.iq.FU_type_0::SimdSqrt                  0      0.00%     57.41% # Type of FU issued
system.cpu0.iq.FU_type_0::SimdFloatAdd              0      0.00%     57.41% # Type of FU issued
system.cpu0.iq.FU_type_0::SimdFloatAlu              0      0.00%     57.41% # Type of FU issued
system.cpu0.iq.FU_type_0::SimdFloatCmp              0      0.00%     57.41% # Type of FU issued
system.cpu0.iq.FU_type_0::SimdFloatCvt              0      0.00%     57.41% # Type of FU issued
system.cpu0.iq.FU_type_0::SimdFloatDiv              0      0.00%     57.41% # Type of FU issued
system.cpu0.iq.FU_type_0::SimdFloatMisc             0      0.00%     57.41% # Type of FU issued
system.cpu0.iq.FU_type_0::SimdFloatMult             0      0.00%     57.41% # Type of FU issued
system.cpu0.iq.FU_type_0::SimdFloatMultAcc            0      0.00%     57.41% # Type of FU issued
system.cpu0.iq.FU_type_0::SimdFloatSqrt             0      0.00%     57.41% # Type of FU issued
system.cpu0.iq.FU_type_0::SimdReduceAdd             0      0.00%     57.41% # Type of FU issued
system.cpu0.iq.FU_type_0::SimdReduceAlu             0      0.00%     57.41% # Type of FU issued
system.cpu0.iq.FU_type_0::SimdReduceCmp             0      0.00%     57.41% # Type of FU issued
system.cpu0.iq.FU_type_0::SimdFloatReduceAdd            0      0.00%     57.41% # Type of FU issued
system.cpu0.iq.FU_type_0::SimdFloatReduceCmp            0      0.00%     57.41% # Type of FU issued
system.cpu0.iq.FU_type_0::SimdAes                   0      0.00%     57.41% # Type of FU issued
system.cpu0.iq.FU_type_0::SimdAesMix                0      0.00%     57.41% # Type of FU issued
system.cpu0.iq.FU_type_0::SimdSha1Hash              0      0.00%     57.41% # Type of FU issued
system.cpu0.iq.FU_type_0::SimdSha1Hash2             0      0.00%     57.41% # Type of FU issued
system.cpu0.iq.FU_type_0::SimdSha256Hash            0      0.00%     57.41% # Type of FU issued
system.cpu0.iq.FU_type_0::SimdSha256Hash2            0      0.00%     57.41% # Type of FU issued
system.cpu0.iq.FU_type_0::SimdShaSigma2             0      0.00%     57.41% # Type of FU issued
system.cpu0.iq.FU_type_0::SimdShaSigma3             0      0.00%     57.41% # Type of FU issued
system.cpu0.iq.FU_type_0::SimdPredAlu               0      0.00%     57.41% # Type of FU issued
system.cpu0.iq.FU_type_0::MemRead           435452745     31.23%     88.64% # Type of FU issued
system.cpu0.iq.FU_type_0::MemWrite          158311953     11.36%    100.00% # Type of FU issued
system.cpu0.iq.FU_type_0::FloatMemRead              9      0.00%    100.00% # Type of FU issued
system.cpu0.iq.FU_type_0::FloatMemWrite            20      0.00%    100.00% # Type of FU issued
system.cpu0.iq.FU_type_0::IprAccess                 0      0.00%    100.00% # Type of FU issued
system.cpu0.iq.FU_type_0::InstPrefetch              0      0.00%    100.00% # Type of FU issued
system.cpu0.iq.FU_type_0::total            1394170145                       # Type of FU issued
system.cpu0.iq.fp_alu_accesses                     53                       # Number of floating point alu accesses
system.cpu0.iq.fp_inst_queue_reads                104                       # Number of floating instruction queue reads
system.cpu0.iq.fp_inst_queue_wakeup_accesses           51                       # Number of floating instruction queue wakeup accesses
system.cpu0.iq.fp_inst_queue_writes                52                       # Number of floating instruction queue writes
system.cpu0.iq.fu_busy_cnt                    3285622                       # FU busy when requested
system.cpu0.iq.fu_busy_rate                  0.002357                       # FU busy rate (busy events/executed inst)
system.cpu0.iq.fu_full::No_OpClass                  0      0.00%      0.00% # attempts to use FU when none available
system.cpu0.iq.fu_full::IntAlu                 643096     19.57%     19.57% # attempts to use FU when none available
system.cpu0.iq.fu_full::IntMult                     0      0.00%     19.57% # attempts to use FU when none available
system.cpu0.iq.fu_full::IntDiv                      0      0.00%     19.57% # attempts to use FU when none available
system.cpu0.iq.fu_full::FloatAdd                    0      0.00%     19.57% # attempts to use FU when none available
system.cpu0.iq.fu_full::FloatCmp                    0      0.00%     19.57% # attempts to use FU when none available
system.cpu0.iq.fu_full::FloatCvt                    0      0.00%     19.57% # attempts to use FU when none available
system.cpu0.iq.fu_full::FloatMult                   0      0.00%     19.57% # attempts to use FU when none available
system.cpu0.iq.fu_full::FloatMultAcc                0      0.00%     19.57% # attempts to use FU when none available
system.cpu0.iq.fu_full::FloatDiv                    0      0.00%     19.57% # attempts to use FU when none available
system.cpu0.iq.fu_full::FloatMisc                   0      0.00%     19.57% # attempts to use FU when none available
system.cpu0.iq.fu_full::FloatSqrt                   0      0.00%     19.57% # attempts to use FU when none available
system.cpu0.iq.fu_full::SimdAdd                     0      0.00%     19.57% # attempts to use FU when none available
system.cpu0.iq.fu_full::SimdAddAcc                  0      0.00%     19.57% # attempts to use FU when none available
system.cpu0.iq.fu_full::SimdAlu                     0      0.00%     19.57% # attempts to use FU when none available
system.cpu0.iq.fu_full::SimdCmp                     0      0.00%     19.57% # attempts to use FU when none available
system.cpu0.iq.fu_full::SimdCvt                     0      0.00%     19.57% # attempts to use FU when none available
system.cpu0.iq.fu_full::SimdMisc                    0      0.00%     19.57% # attempts to use FU when none available
system.cpu0.iq.fu_full::SimdMult                    0      0.00%     19.57% # attempts to use FU when none available
system.cpu0.iq.fu_full::SimdMultAcc                 0      0.00%     19.57% # attempts to use FU when none available
system.cpu0.iq.fu_full::SimdShift                   0      0.00%     19.57% # attempts to use FU when none available
system.cpu0.iq.fu_full::SimdShiftAcc                0      0.00%     19.57% # attempts to use FU when none available
system.cpu0.iq.fu_full::SimdDiv                     0      0.00%     19.57% # attempts to use FU when none available
system.cpu0.iq.fu_full::SimdSqrt                    0      0.00%     19.57% # attempts to use FU when none available
system.cpu0.iq.fu_full::SimdFloatAdd                0      0.00%     19.57% # attempts to use FU when none available
system.cpu0.iq.fu_full::SimdFloatAlu                0      0.00%     19.57% # attempts to use FU when none available
system.cpu0.iq.fu_full::SimdFloatCmp                0      0.00%     19.57% # attempts to use FU when none available
system.cpu0.iq.fu_full::SimdFloatCvt                0      0.00%     19.57% # attempts to use FU when none available
system.cpu0.iq.fu_full::SimdFloatDiv                0      0.00%     19.57% # attempts to use FU when none available
system.cpu0.iq.fu_full::SimdFloatMisc               0      0.00%     19.57% # attempts to use FU when none available
system.cpu0.iq.fu_full::SimdFloatMult               0      0.00%     19.57% # attempts to use FU when none available
system.cpu0.iq.fu_full::SimdFloatMultAcc            0      0.00%     19.57% # attempts to use FU when none available
system.cpu0.iq.fu_full::SimdFloatSqrt               0      0.00%     19.57% # attempts to use FU when none available
system.cpu0.iq.fu_full::SimdReduceAdd               0      0.00%     19.57% # attempts to use FU when none available
system.cpu0.iq.fu_full::SimdReduceAlu               0      0.00%     19.57% # attempts to use FU when none available
system.cpu0.iq.fu_full::SimdReduceCmp               0      0.00%     19.57% # attempts to use FU when none available
system.cpu0.iq.fu_full::SimdFloatReduceAdd            0      0.00%     19.57% # attempts to use FU when none available
system.cpu0.iq.fu_full::SimdFloatReduceCmp            0      0.00%     19.57% # attempts to use FU when none available
system.cpu0.iq.fu_full::SimdAes                     0      0.00%     19.57% # attempts to use FU when none available
system.cpu0.iq.fu_full::SimdAesMix                  0      0.00%     19.57% # attempts to use FU when none available
system.cpu0.iq.fu_full::SimdSha1Hash                0      0.00%     19.57% # attempts to use FU when none available
system.cpu0.iq.fu_full::SimdSha1Hash2               0      0.00%     19.57% # attempts to use FU when none available
system.cpu0.iq.fu_full::SimdSha256Hash              0      0.00%     19.57% # attempts to use FU when none available
system.cpu0.iq.fu_full::SimdSha256Hash2             0      0.00%     19.57% # attempts to use FU when none available
system.cpu0.iq.fu_full::SimdShaSigma2               0      0.00%     19.57% # attempts to use FU when none available
system.cpu0.iq.fu_full::SimdShaSigma3               0      0.00%     19.57% # attempts to use FU when none available
system.cpu0.iq.fu_full::SimdPredAlu                 0      0.00%     19.57% # attempts to use FU when none available
system.cpu0.iq.fu_full::MemRead               2173315     66.15%     85.72% # attempts to use FU when none available
system.cpu0.iq.fu_full::MemWrite               469209     14.28%    100.00% # attempts to use FU when none available
system.cpu0.iq.fu_full::FloatMemRead                0      0.00%    100.00% # attempts to use FU when none available
system.cpu0.iq.fu_full::FloatMemWrite               2      0.00%    100.00% # attempts to use FU when none available
system.cpu0.iq.fu_full::IprAccess                   0      0.00%    100.00% # attempts to use FU when none available
system.cpu0.iq.fu_full::InstPrefetch                0      0.00%    100.00% # attempts to use FU when none available
system.cpu0.iq.int_alu_accesses            1393250126                       # Number of integer alu accesses
system.cpu0.iq.int_inst_queue_reads        5208618355                       # Number of integer instruction queue reads
system.cpu0.iq.int_inst_queue_wakeup_accesses   1372433056                       # Number of integer instruction queue wakeup accesses
system.cpu0.iq.int_inst_queue_writes       1561205899                       # Number of integer instruction queue writes
system.cpu0.iq.iqInstsAdded                1425163079                       # Number of instructions added to the IQ (excludes non-spec)
system.cpu0.iq.iqInstsIssued               1394170145                       # Number of instructions issued
system.cpu0.iq.iqNonSpecInstsAdded           14761273                       # Number of non-speculative instructions added to the IQ
system.cpu0.iq.iqSquashedInstsExamined      121268197                       # Number of squashed instructions iterated over during squash; mainly for profiling
system.cpu0.iq.iqSquashedInstsIssued           236338                       # Number of squashed instructions issued
system.cpu0.iq.iqSquashedNonSpecRemoved       8451560                       # Number of squashed non-spec instructions that were removed
system.cpu0.iq.iqSquashedOperandsExamined     67709833                       # Number of squashed operands that are examined and possibly removed from graph
system.cpu0.iq.issued_per_cycle::samples   2416756210                       # Number of insts issued each cycle
system.cpu0.iq.issued_per_cycle::mean        0.576877                       # Number of insts issued each cycle
system.cpu0.iq.issued_per_cycle::stdev       0.811427                       # Number of insts issued each cycle
system.cpu0.iq.issued_per_cycle::underflows            0      0.00%      0.00% # Number of insts issued each cycle
system.cpu0.iq.issued_per_cycle::0         1401600874     58.00%     58.00% # Number of insts issued each cycle
system.cpu0.iq.issued_per_cycle::1          722388436     29.89%     87.89% # Number of insts issued each cycle
system.cpu0.iq.issued_per_cycle::2          229891935      9.51%     97.40% # Number of insts issued each cycle
system.cpu0.iq.issued_per_cycle::3           46858317      1.94%     99.34% # Number of insts issued each cycle
system.cpu0.iq.issued_per_cycle::4           11973117      0.50%     99.83% # Number of insts issued each cycle
system.cpu0.iq.issued_per_cycle::5            1803451      0.07%     99.91% # Number of insts issued each cycle
system.cpu0.iq.issued_per_cycle::6            1450701      0.06%     99.97% # Number of insts issued each cycle
system.cpu0.iq.issued_per_cycle::7             506073      0.02%     99.99% # Number of insts issued each cycle
system.cpu0.iq.issued_per_cycle::8             283306      0.01%    100.00% # Number of insts issued each cycle
system.cpu0.iq.issued_per_cycle::overflows            0      0.00%    100.00% # Number of insts issued each cycle
system.cpu0.iq.issued_per_cycle::min_value            0                       # Number of insts issued each cycle
system.cpu0.iq.issued_per_cycle::max_value            8                       # Number of insts issued each cycle
system.cpu0.iq.issued_per_cycle::total     2416756210                       # Number of insts issued each cycle
system.cpu0.iq.rate                          0.541211                       # Inst issue rate
system.cpu0.iq.vec_alu_accesses                     0                       # Number of vector alu accesses
system.cpu0.iq.vec_inst_queue_reads                 0                       # Number of vector instruction queue reads
system.cpu0.iq.vec_inst_queue_wakeup_accesses            0                       # Number of vector instruction queue wakeup accesses
system.cpu0.iq.vec_inst_queue_writes                0                       # Number of vector instruction queue writes
system.cpu0.itb.accesses                            0                       # DTB accesses
system.cpu0.itb.hits                                0                       # DTB hits
system.cpu0.itb.misses                              0                       # DTB misses
system.cpu0.itb.read_accesses                       0                       # DTB read accesses
system.cpu0.itb.read_hits                           0                       # DTB read hits
system.cpu0.itb.read_misses                         0                       # DTB read misses
system.cpu0.itb.write_accesses                      0                       # DTB write accesses
system.cpu0.itb.write_hits                          0                       # DTB write hits
system.cpu0.itb.write_misses                        0                       # DTB write misses
system.cpu0.memDep0.conflictingLoads         34050694                       # Number of conflicting loads.
system.cpu0.memDep0.conflictingStores         4792479                       # Number of conflicting stores.
system.cpu0.memDep0.insertedLoads           446454100                       # Number of loads inserted to the mem dependence unit.
system.cpu0.memDep0.insertedStores          166857811                       # Number of stores inserted to the mem dependence unit.
system.cpu0.misc_regfile_reads                   1895                       # number of misc regfile reads
system.cpu0.misc_regfile_writes                    22                       # number of misc regfile writes
system.cpu0.numCycles                      2576020637                       # number of cpu cycles simulated
system.cpu0.numWorkItemsCompleted                   0                       # number of work items this cpu completed
system.cpu0.numWorkItemsStarted                     0                       # number of work items this cpu started
system.cpu0.quiesceCycles                     4574034                       # Total number of cycles that CPU has spent quiesced or waiting for an interrupt
system.cpu0.rename.BlockCycles              366121587                       # Number of cycles rename is blocking
system.cpu0.rename.CommittedMaps            845198823                       # Number of HB maps that are committed
system.cpu0.rename.IQFullEvents              10138147                       # Number of times rename has blocked due to IQ full
system.cpu0.rename.IdleCycles               999355273                       # Number of cycles rename is idle
system.cpu0.rename.LQFullEvents              21700126                       # Number of times rename has blocked due to LQ full
system.cpu0.rename.ROBFullEvents                19017                       # Number of times rename has blocked due to ROB full
system.cpu0.rename.RenameLookups           1785244308                       # Number of register rename lookups that rename has made
system.cpu0.rename.RenamedInsts            1453828901                       # Number of instructions processed by rename
system.cpu0.rename.RenamedOperands          942554102                       # Number of destination operands rename has renamed
system.cpu0.rename.RunCycles                983858521                       # Number of cycles rename is running
system.cpu0.rename.SQFullEvents              22546777                       # Number of times rename has blocked due to SQ full
system.cpu0.rename.SquashCycles              10771226                       # Number of cycles rename is squashing
system.cpu0.rename.UnblockCycles             56495004                       # Number of cycles rename is unblocking
system.cpu0.rename.UndoneMaps                97355274                       # Number of HB maps that are undone due to squashing
system.cpu0.rename.fp_rename_lookups               44                       # Number of floating rename lookups
system.cpu0.rename.int_rename_lookups      1785244264                       # Number of integer rename lookups
system.cpu0.rename.serializeStallCycles        154599                       # count of cycles rename stalled for serializing inst
system.cpu0.rename.serializingInsts              5870                       # count of serializing insts renamed
system.cpu0.rename.skidInsts                 26047678                       # count of insts added to the skid buffer
system.cpu0.rename.tempSerializingInsts          5825                       # count of temporary serializing insts renamed
system.cpu0.rob.rob_reads                  3799223799                       # The number of ROB reads
system.cpu0.rob.rob_writes                 2902451389                       # The number of ROB writes
system.cpu0.timesIdled                       31075514                       # Number of times that the entire CPU went into an idle state and unscheduled itself
system.cpu0.workload.numSyscalls                 1862                       # Number of system calls
system.cpu1.branchPred.BTBCorrect                   0                       # Number of correct BTB predictions (this stat may not work properly.
system.cpu1.branchPred.BTBHitPct            82.378904                       # BTB Hit Percentage
system.cpu1.branchPred.BTBHits               20796443                       # Number of BTB hits
system.cpu1.branchPred.BTBLookups            25244865                       # Number of BTB lookups
system.cpu1.branchPred.RASInCorrect                 0                       # Number of incorrect RAS predictions.
system.cpu1.branchPred.condIncorrect          2812241                       # Number of conditional branches incorrect
system.cpu1.branchPred.condPredicted         30706945                       # Number of conditional branches predicted
system.cpu1.branchPred.indirectHits           1069317                       # Number of indirect target hits.
system.cpu1.branchPred.indirectLookups        1086047                       # Number of indirect predictor lookups.
system.cpu1.branchPred.indirectMisses           16730                       # Number of indirect misses.
system.cpu1.branchPred.lookups               35398630                       # Number of BP lookups
system.cpu1.branchPred.usedRAS                      0                       # Number of times the RAS was used to get a target.
system.cpu1.branchPredindirectMispredicted        48292                       # Number of mispredicted indirect branches.
system.cpu1.commit.amos                       2100002                       # Number of atomic instructions committed
system.cpu1.commit.branchMispredicts          1995207                       # The number of times a branch was mispredicted
system.cpu1.commit.branches                  28119569                       # Number of branches committed
system.cpu1.commit.bw_lim_events              4040653                       # number cycles where commit BW limit reached
system.cpu1.commit.commitNonSpecStalls        6300686                       # The number of times commit has been forced to stall to communicate backwards
system.cpu1.commit.commitSquashedInsts       17645903                       # The number of squashed insts skipped by commit
system.cpu1.commit.committedInsts           120067253                       # Number of instructions committed
system.cpu1.commit.committedOps             122167435                       # Number of ops (including micro ops) committed
system.cpu1.commit.committed_per_cycle::samples    471673012                       # Number of insts commited each cycle
system.cpu1.commit.committed_per_cycle::mean     0.259009                       # Number of insts commited each cycle
system.cpu1.commit.committed_per_cycle::stdev     1.019974                       # Number of insts commited each cycle
system.cpu1.commit.committed_per_cycle::underflows            0      0.00%      0.00% # Number of insts commited each cycle
system.cpu1.commit.committed_per_cycle::0    421660155     89.40%     89.40% # Number of insts commited each cycle
system.cpu1.commit.committed_per_cycle::1     24964129      5.29%     94.69% # Number of insts commited each cycle
system.cpu1.commit.committed_per_cycle::2      9039276      1.92%     96.61% # Number of insts commited each cycle
system.cpu1.commit.committed_per_cycle::3      7157709      1.52%     98.12% # Number of insts commited each cycle
system.cpu1.commit.committed_per_cycle::4      1595760      0.34%     98.46% # Number of insts commited each cycle
system.cpu1.commit.committed_per_cycle::5       725944      0.15%     98.62% # Number of insts commited each cycle
system.cpu1.commit.committed_per_cycle::6      2112059      0.45%     99.06% # Number of insts commited each cycle
system.cpu1.commit.committed_per_cycle::7       377327      0.08%     99.14% # Number of insts commited each cycle
system.cpu1.commit.committed_per_cycle::8      4040653      0.86%    100.00% # Number of insts commited each cycle
system.cpu1.commit.committed_per_cycle::overflows            0      0.00%    100.00% # Number of insts commited each cycle
system.cpu1.commit.committed_per_cycle::min_value            0                       # Number of insts commited each cycle
system.cpu1.commit.committed_per_cycle::max_value            8                       # Number of insts commited each cycle
system.cpu1.commit.committed_per_cycle::total    471673012                       # Number of insts commited each cycle
system.cpu1.commit.fp_insts                        12                       # Number of committed floating point instructions.
system.cpu1.commit.function_calls             1798027                       # Number of function calls committed.
system.cpu1.commit.int_insts                116604521                       # Number of committed integer instructions.
system.cpu1.commit.loads                     30176195                       # Number of loads committed
system.cpu1.commit.membars                    4200132                       # Number of memory barriers committed
system.cpu1.commit.op_class_0::No_OpClass      4200132      3.44%      3.44% # Class of committed instruction
system.cpu1.commit.op_class_0::IntAlu        76668993     62.76%     66.20% # Class of committed instruction
system.cpu1.commit.op_class_0::IntMult             44      0.00%     66.20% # Class of committed instruction
system.cpu1.commit.op_class_0::IntDiv              88      0.00%     66.20% # Class of committed instruction
system.cpu1.commit.op_class_0::FloatAdd             0      0.00%     66.20% # Class of committed instruction
system.cpu1.commit.op_class_0::FloatCmp             0      0.00%     66.20% # Class of committed instruction
system.cpu1.commit.op_class_0::FloatCvt             0      0.00%     66.20% # Class of committed instruction
system.cpu1.commit.op_class_0::FloatMult            0      0.00%     66.20% # Class of committed instruction
system.cpu1.commit.op_class_0::FloatMultAcc            0      0.00%     66.20% # Class of committed instruction
system.cpu1.commit.op_class_0::FloatDiv             0      0.00%     66.20% # Class of committed instruction
system.cpu1.commit.op_class_0::FloatMisc            0      0.00%     66.20% # Class of committed instruction
system.cpu1.commit.op_class_0::FloatSqrt            0      0.00%     66.20% # Class of committed instruction
system.cpu1.commit.op_class_0::SimdAdd              0      0.00%     66.20% # Class of committed instruction
system.cpu1.commit.op_class_0::SimdAddAcc            0      0.00%     66.20% # Class of committed instruction
system.cpu1.commit.op_class_0::SimdAlu              0      0.00%     66.20% # Class of committed instruction
system.cpu1.commit.op_class_0::SimdCmp              0      0.00%     66.20% # Class of committed instruction
system.cpu1.commit.op_class_0::SimdCvt              0      0.00%     66.20% # Class of committed instruction
system.cpu1.commit.op_class_0::SimdMisc             0      0.00%     66.20% # Class of committed instruction
system.cpu1.commit.op_class_0::SimdMult             0      0.00%     66.20% # Class of committed instruction
system.cpu1.commit.op_class_0::SimdMultAcc            0      0.00%     66.20% # Class of committed instruction
system.cpu1.commit.op_class_0::SimdShift            0      0.00%     66.20% # Class of committed instruction
system.cpu1.commit.op_class_0::SimdShiftAcc            0      0.00%     66.20% # Class of committed instruction
system.cpu1.commit.op_class_0::SimdDiv              0      0.00%     66.20% # Class of committed instruction
system.cpu1.commit.op_class_0::SimdSqrt             0      0.00%     66.20% # Class of committed instruction
system.cpu1.commit.op_class_0::SimdFloatAdd            0      0.00%     66.20% # Class of committed instruction
system.cpu1.commit.op_class_0::SimdFloatAlu            0      0.00%     66.20% # Class of committed instruction
system.cpu1.commit.op_class_0::SimdFloatCmp            0      0.00%     66.20% # Class of committed instruction
system.cpu1.commit.op_class_0::SimdFloatCvt            0      0.00%     66.20% # Class of committed instruction
system.cpu1.commit.op_class_0::SimdFloatDiv            0      0.00%     66.20% # Class of committed instruction
system.cpu1.commit.op_class_0::SimdFloatMisc            0      0.00%     66.20% # Class of committed instruction
system.cpu1.commit.op_class_0::SimdFloatMult            0      0.00%     66.20% # Class of committed instruction
system.cpu1.commit.op_class_0::SimdFloatMultAcc            0      0.00%     66.20% # Class of committed instruction
system.cpu1.commit.op_class_0::SimdFloatSqrt            0      0.00%     66.20% # Class of committed instruction
system.cpu1.commit.op_class_0::SimdReduceAdd            0      0.00%     66.20% # Class of committed instruction
system.cpu1.commit.op_class_0::SimdReduceAlu            0      0.00%     66.20% # Class of committed instruction
system.cpu1.commit.op_class_0::SimdReduceCmp            0      0.00%     66.20% # Class of committed instruction
system.cpu1.commit.op_class_0::SimdFloatReduceAdd            0      0.00%     66.20% # Class of committed instruction
system.cpu1.commit.op_class_0::SimdFloatReduceCmp            0      0.00%     66.20% # Class of committed instruction
system.cpu1.commit.op_class_0::SimdAes              0      0.00%     66.20% # Class of committed instruction
system.cpu1.commit.op_class_0::SimdAesMix            0      0.00%     66.20% # Class of committed instruction
system.cpu1.commit.op_class_0::SimdSha1Hash            0      0.00%     66.20% # Class of committed instruction
system.cpu1.commit.op_class_0::SimdSha1Hash2            0      0.00%     66.20% # Class of committed instruction
system.cpu1.commit.op_class_0::SimdSha256Hash            0      0.00%     66.20% # Class of committed instruction
system.cpu1.commit.op_class_0::SimdSha256Hash2            0      0.00%     66.20% # Class of committed instruction
system.cpu1.commit.op_class_0::SimdShaSigma2            0      0.00%     66.20% # Class of committed instruction
system.cpu1.commit.op_class_0::SimdShaSigma3            0      0.00%     66.20% # Class of committed instruction
system.cpu1.commit.op_class_0::SimdPredAlu            0      0.00%     66.20% # Class of committed instruction
system.cpu1.commit.op_class_0::MemRead       32276197     26.42%     92.62% # Class of committed instruction
system.cpu1.commit.op_class_0::MemWrite       9021969      7.38%    100.00% # Class of committed instruction
system.cpu1.commit.op_class_0::FloatMemRead            0      0.00%    100.00% # Class of committed instruction
system.cpu1.commit.op_class_0::FloatMemWrite           12      0.00%    100.00% # Class of committed instruction
system.cpu1.commit.op_class_0::IprAccess            0      0.00%    100.00% # Class of committed instruction
system.cpu1.commit.op_class_0::InstPrefetch            0      0.00%    100.00% # Class of committed instruction
system.cpu1.commit.op_class_0::total        122167435                       # Class of committed instruction
system.cpu1.commit.refs                      41298178                       # Number of memory references committed
system.cpu1.commit.swp_count                        0                       # Number of s/w prefetches committed
system.cpu1.commit.vec_insts                        0                       # Number of committed Vector instructions.
system.cpu1.committedInsts                  120067253                       # Number of Instructions Simulated
system.cpu1.committedOps                    122167435                       # Number of Ops (including micro ops) Simulated
system.cpu1.cpi                              3.968266                       # CPI: Cycles Per Instruction
system.cpu1.cpi_total                        3.968266                       # CPI: Total CPI of All Threads
system.cpu1.decode.BlockedCycles            375482672                       # Number of cycles decode is blocked
system.cpu1.decode.BranchMispred               867728                       # Number of times decode detected a branch misprediction
system.cpu1.decode.BranchResolved            19921675                       # Number of times decode resolved a branch
system.cpu1.decode.DecodedInsts             146412361                       # Number of instructions handled by decode
system.cpu1.decode.IdleCycles                27111465                       # Number of cycles decode is idle
system.cpu1.decode.RunCycles                 65337271                       # Number of cycles decode is running
system.cpu1.decode.SquashCycles               1996976                       # Number of cycles decode is squashing
system.cpu1.decode.SquashedInsts              2066258                       # Number of squashed instructions handled by decode
system.cpu1.decode.UnblockCycles              5304487                       # Number of cycles decode is unblocking
system.cpu1.dtb.accesses                            0                       # DTB accesses
system.cpu1.dtb.hits                                0                       # DTB hits
system.cpu1.dtb.misses                              0                       # DTB misses
system.cpu1.dtb.read_accesses                       0                       # DTB read accesses
system.cpu1.dtb.read_hits                           0                       # DTB read hits
system.cpu1.dtb.read_misses                         0                       # DTB read misses
system.cpu1.dtb.write_accesses                      0                       # DTB write accesses
system.cpu1.dtb.write_hits                          0                       # DTB write hits
system.cpu1.dtb.write_misses                        0                       # DTB write misses
system.cpu1.fetch.Branches                   35398630                       # Number of branches that fetch encountered
system.cpu1.fetch.CacheLines                 23394910                       # Number of cache lines fetched
system.cpu1.fetch.Cycles                    447031044                       # Number of cycles fetch has run and was not squashing or blocked
system.cpu1.fetch.IcacheSquashes               204927                       # Number of outstanding Icache misses that were squashed
system.cpu1.fetch.Insts                     151319976                       # Number of instructions fetch has processed
system.cpu1.fetch.MiscStallCycles                   1                       # Number of cycles fetch has spent waiting on interrupts, or bad addresses, or out of MSHRs
system.cpu1.fetch.SquashCycles                5628020                       # Number of cycles fetch has spent squashing
system.cpu1.fetch.branchRate                 0.074295                       # Number of branch fetches per cycle
system.cpu1.fetch.icacheStallCycles          25387816                       # Number of cycles fetch is stalled on an Icache miss
system.cpu1.fetch.predictedBranches          21865760                       # Number of branches that fetch has predicted taken
system.cpu1.fetch.rate                       0.317593                       # Number of inst fetches per cycle
system.cpu1.fetch.rateDist::samples         475232871                       # Number of instructions fetched each cycle (Total)
system.cpu1.fetch.rateDist::mean             0.322832                       # Number of instructions fetched each cycle (Total)
system.cpu1.fetch.rateDist::stdev            0.754885                       # Number of instructions fetched each cycle (Total)
system.cpu1.fetch.rateDist::underflows              0      0.00%      0.00% # Number of instructions fetched each cycle (Total)
system.cpu1.fetch.rateDist::0               378301677     79.60%     79.60% # Number of instructions fetched each cycle (Total)
system.cpu1.fetch.rateDist::1                61405809     12.92%     92.52% # Number of instructions fetched each cycle (Total)
system.cpu1.fetch.rateDist::2                19339691      4.07%     96.59% # Number of instructions fetched each cycle (Total)
system.cpu1.fetch.rateDist::3                12565058      2.64%     99.24% # Number of instructions fetched each cycle (Total)
system.cpu1.fetch.rateDist::4                 2531648      0.53%     99.77% # Number of instructions fetched each cycle (Total)
system.cpu1.fetch.rateDist::5                 1023424      0.22%     99.99% # Number of instructions fetched each cycle (Total)
system.cpu1.fetch.rateDist::6                   62728      0.01%    100.00% # Number of instructions fetched each cycle (Total)
system.cpu1.fetch.rateDist::7                    2700      0.00%    100.00% # Number of instructions fetched each cycle (Total)
system.cpu1.fetch.rateDist::8                     136      0.00%    100.00% # Number of instructions fetched each cycle (Total)
system.cpu1.fetch.rateDist::overflows               0      0.00%    100.00% # Number of instructions fetched each cycle (Total)
system.cpu1.fetch.rateDist::min_value               0                       # Number of instructions fetched each cycle (Total)
system.cpu1.fetch.rateDist::max_value               8                       # Number of instructions fetched each cycle (Total)
system.cpu1.fetch.rateDist::total           475232871                       # Number of instructions fetched each cycle (Total)
system.cpu1.fp_regfile_reads                       12                       # number of floating regfile reads
system.cpu1.idleCycles                        1225908                       # Total number of cycles that the CPU has spent unscheduled due to idling
system.cpu1.iew.branchMispredicts             2113413                       # Number of branch mispredicts detected at execute
system.cpu1.iew.exec_branches                30686427                       # Number of branches executed
system.cpu1.iew.exec_nop                            0                       # number of nop insts executed
system.cpu1.iew.exec_rate                    0.282256                       # Inst execution rate
system.cpu1.iew.exec_refs                    46024967                       # number of memory reference insts executed
system.cpu1.iew.exec_stores                  11517290                       # Number of stores executed
system.cpu1.iew.exec_swp                            0                       # number of swp insts executed
system.cpu1.iew.iewBlockCycles              314232772                       # Number of cycles IEW is blocking
system.cpu1.iew.iewDispLoadInsts             35164235                       # Number of dispatched load instructions
system.cpu1.iew.iewDispNonSpecInsts           2100628                       # Number of dispatched non-speculative instructions
system.cpu1.iew.iewDispSquashedInsts          1695535                       # Number of squashed instructions skipped by dispatch
system.cpu1.iew.iewDispStoreInsts            11909684                       # Number of dispatched store instructions
system.cpu1.iew.iewDispatchedInsts          139759916                       # Number of instructions dispatched to IQ
system.cpu1.iew.iewExecLoadInsts             34507677                       # Number of load instructions executed
system.cpu1.iew.iewExecSquashedInsts          1959196                       # Number of squashed instructions skipped in execute
system.cpu1.iew.iewExecutedInsts            134483308                       # Number of executed instructions
system.cpu1.iew.iewIQFullEvents               1961560                       # Number of times the IQ has become full, causing a stall
system.cpu1.iew.iewIdleCycles                       0                       # Number of cycles IEW is idle
system.cpu1.iew.iewLSQFullEvents              9346201                       # Number of times the LSQ has become full, causing a stall
system.cpu1.iew.iewSquashCycles               1996976                       # Number of cycles IEW is squashing
system.cpu1.iew.iewUnblockCycles             13619820                       # Number of cycles IEW is unblocking
system.cpu1.iew.lsq.thread0.blockedLoads            0                       # Number of blocked loads due to partial load-store forwarding
system.cpu1.iew.lsq.thread0.cacheBlocked       122442                       # Number of times an access to memory failed due to the cache being blocked
system.cpu1.iew.lsq.thread0.forwLoads          997166                       # Number of loads that had data forwarded from stores
system.cpu1.iew.lsq.thread0.ignoredResponses        26929                       # Number of memory responses ignored because the instruction is squashed
system.cpu1.iew.lsq.thread0.invAddrLoads            0                       # Number of loads ignored due to an invalid address
system.cpu1.iew.lsq.thread0.invAddrSwpfs            0                       # Number of software prefetches ignored due to an invalid address
system.cpu1.iew.lsq.thread0.memOrderViolation         2333                       # Number of memory ordering violations
system.cpu1.iew.lsq.thread0.rescheduledLoads        12768                       # Number of loads that were rescheduled
system.cpu1.iew.lsq.thread0.squashedLoads      4988040                       # Number of loads squashed
system.cpu1.iew.lsq.thread0.squashedStores       787701                       # Number of stores squashed
system.cpu1.iew.memOrderViolationEvents          2333                       # Number of memory order violations
system.cpu1.iew.predictedNotTakenIncorrect       533976                       # Number of branches that were predicted not taken incorrectly
system.cpu1.iew.predictedTakenIncorrect       1579437                       # Number of branches that were predicted taken incorrectly
system.cpu1.iew.wb_consumers                 77331488                       # num instructions consuming a value
system.cpu1.iew.wb_count                    132872815                       # cumulative count of insts written-back
system.cpu1.iew.wb_fanout                    0.840097                       # average fanout of values written-back
system.cpu1.iew.wb_producers                 64965970                       # num instructions producing a value
system.cpu1.iew.wb_rate                      0.278876                       # insts written-back per cycle
system.cpu1.iew.wb_sent                     132938069                       # cumulative count of insts sent to commit
system.cpu1.int_regfile_reads               170449352                       # number of integer regfile reads
system.cpu1.int_regfile_writes               89651845                       # number of integer regfile writes
system.cpu1.ipc                              0.251999                       # IPC: Instructions Per Cycle
system.cpu1.ipc_total                        0.251999                       # IPC: Total IPC of All Threads
system.cpu1.iq.FU_type_0::No_OpClass          4200232      3.08%      3.08% # Type of FU issued
system.cpu1.iq.FU_type_0::IntAlu             85647604     62.77%     65.85% # Type of FU issued
system.cpu1.iq.FU_type_0::IntMult                  46      0.00%     65.85% # Type of FU issued
system.cpu1.iq.FU_type_0::IntDiv                   88      0.00%     65.85% # Type of FU issued
system.cpu1.iq.FU_type_0::FloatAdd                  0      0.00%     65.85% # Type of FU issued
system.cpu1.iq.FU_type_0::FloatCmp                  0      0.00%     65.85% # Type of FU issued
system.cpu1.iq.FU_type_0::FloatCvt                  0      0.00%     65.85% # Type of FU issued
system.cpu1.iq.FU_type_0::FloatMult                 0      0.00%     65.85% # Type of FU issued
system.cpu1.iq.FU_type_0::FloatMultAcc              0      0.00%     65.85% # Type of FU issued
system.cpu1.iq.FU_type_0::FloatDiv                  0      0.00%     65.85% # Type of FU issued
system.cpu1.iq.FU_type_0::FloatMisc                 0      0.00%     65.85% # Type of FU issued
system.cpu1.iq.FU_type_0::FloatSqrt                 0      0.00%     65.85% # Type of FU issued
system.cpu1.iq.FU_type_0::SimdAdd                   0      0.00%     65.85% # Type of FU issued
system.cpu1.iq.FU_type_0::SimdAddAcc                0      0.00%     65.85% # Type of FU issued
system.cpu1.iq.FU_type_0::SimdAlu                   0      0.00%     65.85% # Type of FU issued
system.cpu1.iq.FU_type_0::SimdCmp                   0      0.00%     65.85% # Type of FU issued
system.cpu1.iq.FU_type_0::SimdCvt                   0      0.00%     65.85% # Type of FU issued
system.cpu1.iq.FU_type_0::SimdMisc                  0      0.00%     65.85% # Type of FU issued
system.cpu1.iq.FU_type_0::SimdMult                  0      0.00%     65.85% # Type of FU issued
system.cpu1.iq.FU_type_0::SimdMultAcc               0      0.00%     65.85% # Type of FU issued
system.cpu1.iq.FU_type_0::SimdShift                 0      0.00%     65.85% # Type of FU issued
system.cpu1.iq.FU_type_0::SimdShiftAcc              0      0.00%     65.85% # Type of FU issued
system.cpu1.iq.FU_type_0::SimdDiv                   0      0.00%     65.85% # Type of FU issued
system.cpu1.iq.FU_type_0::SimdSqrt                  0      0.00%     65.85% # Type of FU issued
system.cpu1.iq.FU_type_0::SimdFloatAdd              0      0.00%     65.85% # Type of FU issued
system.cpu1.iq.FU_type_0::SimdFloatAlu              0      0.00%     65.85% # Type of FU issued
system.cpu1.iq.FU_type_0::SimdFloatCmp              0      0.00%     65.85% # Type of FU issued
system.cpu1.iq.FU_type_0::SimdFloatCvt              0      0.00%     65.85% # Type of FU issued
system.cpu1.iq.FU_type_0::SimdFloatDiv              0      0.00%     65.85% # Type of FU issued
system.cpu1.iq.FU_type_0::SimdFloatMisc             0      0.00%     65.85% # Type of FU issued
system.cpu1.iq.FU_type_0::SimdFloatMult             0      0.00%     65.85% # Type of FU issued
system.cpu1.iq.FU_type_0::SimdFloatMultAcc            0      0.00%     65.85% # Type of FU issued
system.cpu1.iq.FU_type_0::SimdFloatSqrt             0      0.00%     65.85% # Type of FU issued
system.cpu1.iq.FU_type_0::SimdReduceAdd             0      0.00%     65.85% # Type of FU issued
system.cpu1.iq.FU_type_0::SimdReduceAlu             0      0.00%     65.85% # Type of FU issued
system.cpu1.iq.FU_type_0::SimdReduceCmp             0      0.00%     65.85% # Type of FU issued
system.cpu1.iq.FU_type_0::SimdFloatReduceAdd            0      0.00%     65.85% # Type of FU issued
system.cpu1.iq.FU_type_0::SimdFloatReduceCmp            0      0.00%     65.85% # Type of FU issued
system.cpu1.iq.FU_type_0::SimdAes                   0      0.00%     65.85% # Type of FU issued
system.cpu1.iq.FU_type_0::SimdAesMix                0      0.00%     65.85% # Type of FU issued
system.cpu1.iq.FU_type_0::SimdSha1Hash              0      0.00%     65.85% # Type of FU issued
system.cpu1.iq.FU_type_0::SimdSha1Hash2             0      0.00%     65.85% # Type of FU issued
system.cpu1.iq.FU_type_0::SimdSha256Hash            0      0.00%     65.85% # Type of FU issued
system.cpu1.iq.FU_type_0::SimdSha256Hash2            0      0.00%     65.85% # Type of FU issued
system.cpu1.iq.FU_type_0::SimdShaSigma2             0      0.00%     65.85% # Type of FU issued
system.cpu1.iq.FU_type_0::SimdShaSigma3             0      0.00%     65.85% # Type of FU issued
system.cpu1.iq.FU_type_0::SimdPredAlu               0      0.00%     65.85% # Type of FU issued
system.cpu1.iq.FU_type_0::MemRead            37112271     27.20%     93.05% # Type of FU issued
system.cpu1.iq.FU_type_0::MemWrite            9482251      6.95%    100.00% # Type of FU issued
system.cpu1.iq.FU_type_0::FloatMemRead              0      0.00%    100.00% # Type of FU issued
system.cpu1.iq.FU_type_0::FloatMemWrite            12      0.00%    100.00% # Type of FU issued
system.cpu1.iq.FU_type_0::IprAccess                 0      0.00%    100.00% # Type of FU issued
system.cpu1.iq.FU_type_0::InstPrefetch              0      0.00%    100.00% # Type of FU issued
system.cpu1.iq.FU_type_0::total             136442504                       # Type of FU issued
system.cpu1.iq.fp_alu_accesses                     14                       # Number of floating point alu accesses
system.cpu1.iq.fp_inst_queue_reads                 26                       # Number of floating instruction queue reads
system.cpu1.iq.fp_inst_queue_wakeup_accesses           12                       # Number of floating instruction queue wakeup accesses
system.cpu1.iq.fp_inst_queue_writes                12                       # Number of floating instruction queue writes
system.cpu1.iq.fu_busy_cnt                    2956431                       # FU busy when requested
system.cpu1.iq.fu_busy_rate                  0.021668                       # FU busy rate (busy events/executed inst)
system.cpu1.iq.fu_full::No_OpClass                  0      0.00%      0.00% # attempts to use FU when none available
system.cpu1.iq.fu_full::IntAlu                 705144     23.85%     23.85% # attempts to use FU when none available
system.cpu1.iq.fu_full::IntMult                     0      0.00%     23.85% # attempts to use FU when none available
system.cpu1.iq.fu_full::IntDiv                      0      0.00%     23.85% # attempts to use FU when none available
system.cpu1.iq.fu_full::FloatAdd                    0      0.00%     23.85% # attempts to use FU when none available
system.cpu1.iq.fu_full::FloatCmp                    0      0.00%     23.85% # attempts to use FU when none available
system.cpu1.iq.fu_full::FloatCvt                    0      0.00%     23.85% # attempts to use FU when none available
system.cpu1.iq.fu_full::FloatMult                   0      0.00%     23.85% # attempts to use FU when none available
system.cpu1.iq.fu_full::FloatMultAcc                0      0.00%     23.85% # attempts to use FU when none available
system.cpu1.iq.fu_full::FloatDiv                    0      0.00%     23.85% # attempts to use FU when none available
system.cpu1.iq.fu_full::FloatMisc                   0      0.00%     23.85% # attempts to use FU when none available
system.cpu1.iq.fu_full::FloatSqrt                   0      0.00%     23.85% # attempts to use FU when none available
system.cpu1.iq.fu_full::SimdAdd                     0      0.00%     23.85% # attempts to use FU when none available
system.cpu1.iq.fu_full::SimdAddAcc                  0      0.00%     23.85% # attempts to use FU when none available
system.cpu1.iq.fu_full::SimdAlu                     0      0.00%     23.85% # attempts to use FU when none available
system.cpu1.iq.fu_full::SimdCmp                     0      0.00%     23.85% # attempts to use FU when none available
system.cpu1.iq.fu_full::SimdCvt                     0      0.00%     23.85% # attempts to use FU when none available
system.cpu1.iq.fu_full::SimdMisc                    0      0.00%     23.85% # attempts to use FU when none available
system.cpu1.iq.fu_full::SimdMult                    0      0.00%     23.85% # attempts to use FU when none available
system.cpu1.iq.fu_full::SimdMultAcc                 0      0.00%     23.85% # attempts to use FU when none available
system.cpu1.iq.fu_full::SimdShift                   0      0.00%     23.85% # attempts to use FU when none available
system.cpu1.iq.fu_full::SimdShiftAcc                0      0.00%     23.85% # attempts to use FU when none available
system.cpu1.iq.fu_full::SimdDiv                     0      0.00%     23.85% # attempts to use FU when none available
system.cpu1.iq.fu_full::SimdSqrt                    0      0.00%     23.85% # attempts to use FU when none available
system.cpu1.iq.fu_full::SimdFloatAdd                0      0.00%     23.85% # attempts to use FU when none available
system.cpu1.iq.fu_full::SimdFloatAlu                0      0.00%     23.85% # attempts to use FU when none available
system.cpu1.iq.fu_full::SimdFloatCmp                0      0.00%     23.85% # attempts to use FU when none available
system.cpu1.iq.fu_full::SimdFloatCvt                0      0.00%     23.85% # attempts to use FU when none available
system.cpu1.iq.fu_full::SimdFloatDiv                0      0.00%     23.85% # attempts to use FU when none available
system.cpu1.iq.fu_full::SimdFloatMisc               0      0.00%     23.85% # attempts to use FU when none available
system.cpu1.iq.fu_full::SimdFloatMult               0      0.00%     23.85% # attempts to use FU when none available
system.cpu1.iq.fu_full::SimdFloatMultAcc            0      0.00%     23.85% # attempts to use FU when none available
system.cpu1.iq.fu_full::SimdFloatSqrt               0      0.00%     23.85% # attempts to use FU when none available
system.cpu1.iq.fu_full::SimdReduceAdd               0      0.00%     23.85% # attempts to use FU when none available
system.cpu1.iq.fu_full::SimdReduceAlu               0      0.00%     23.85% # attempts to use FU when none available
system.cpu1.iq.fu_full::SimdReduceCmp               0      0.00%     23.85% # attempts to use FU when none available
system.cpu1.iq.fu_full::SimdFloatReduceAdd            0      0.00%     23.85% # attempts to use FU when none available
system.cpu1.iq.fu_full::SimdFloatReduceCmp            0      0.00%     23.85% # attempts to use FU when none available
system.cpu1.iq.fu_full::SimdAes                     0      0.00%     23.85% # attempts to use FU when none available
system.cpu1.iq.fu_full::SimdAesMix                  0      0.00%     23.85% # attempts to use FU when none available
system.cpu1.iq.fu_full::SimdSha1Hash                0      0.00%     23.85% # attempts to use FU when none available
system.cpu1.iq.fu_full::SimdSha1Hash2               0      0.00%     23.85% # attempts to use FU when none available
system.cpu1.iq.fu_full::SimdSha256Hash              0      0.00%     23.85% # attempts to use FU when none available
system.cpu1.iq.fu_full::SimdSha256Hash2             0      0.00%     23.85% # attempts to use FU when none available
system.cpu1.iq.fu_full::SimdShaSigma2               0      0.00%     23.85% # attempts to use FU when none available
system.cpu1.iq.fu_full::SimdShaSigma3               0      0.00%     23.85% # attempts to use FU when none available
system.cpu1.iq.fu_full::SimdPredAlu                 0      0.00%     23.85% # attempts to use FU when none available
system.cpu1.iq.fu_full::MemRead               1818691     61.52%     85.37% # attempts to use FU when none available
system.cpu1.iq.fu_full::MemWrite               432594     14.63%    100.00% # attempts to use FU when none available
system.cpu1.iq.fu_full::FloatMemRead                0      0.00%    100.00% # attempts to use FU when none available
[...]
system.cpu1.dcache.WriteReq_hits::.cpu1.data      2629642                       # number of WriteReq hits
system.cpu1.dcache.WriteReq_hits::total       2629642                       # number of WriteReq hits
system.cpu1.dcache.WriteReq_misses::.cpu1.data      3281752                       # number of WriteReq misses
system.cpu1.dcache.WriteReq_misses::total      3281752                       # number of WriteReq misses
system.cpu1.dcache.WriteReq_miss_latency::.cpu1.data 255029839124                       # number of WriteReq miss cycles
system.cpu1.dcache.WriteReq_miss_latency::total 255029839124                       # number of WriteReq miss cycles
system.cpu1.dcache.WriteReq_accesses::.cpu1.data      5911394                       # number of WriteReq accesses(hits+misses)
system.cpu1.dcache.WriteReq_accesses::total      5911394                       # number of WriteReq accesses(hits+misses)
system.cpu1.dcache.WriteReq_miss_rate::.cpu1.data     0.555157                       # miss rate for WriteReq accesses
system.cpu1.dcache.WriteReq_miss_rate::total     0.555157                       # miss rate for WriteReq accesses
system.cpu1.dcache.WriteReq_avg_miss_latency::.cpu1.data 77711.490425                       # average WriteReq miss latency
system.cpu1.dcache.WriteReq_avg_miss_latency::total 77711.490425                       # average WriteReq miss latency
system.cpu1.dcache.WriteReq_mshr_hits::.cpu1.data      3057683                       # number of WriteReq MSHR hits
system.cpu1.dcache.WriteReq_mshr_hits::total      3057683                       # number of WriteReq MSHR hits
system.cpu1.dcache.WriteReq_mshr_misses::.cpu1.data       224069                       # number of WriteReq MSHR misses
system.cpu1.dcache.WriteReq_mshr_misses::total       224069                       # number of WriteReq MSHR misses
system.cpu1.dcache.WriteReq_mshr_miss_latency::.cpu1.data  22284676775                       # number of WriteReq MSHR miss cycles
system.cpu1.dcache.WriteReq_mshr_miss_latency::total  22284676775                       # number of WriteReq MSHR miss cycles
system.cpu1.dcache.WriteReq_mshr_miss_rate::.cpu1.data     0.037905                       # mshr miss rate for WriteReq accesses
system.cpu1.dcache.WriteReq_mshr_miss_rate::total     0.037905                       # mshr miss rate for WriteReq accesses
system.cpu1.dcache.WriteReq_avg_mshr_miss_latency::.cpu1.data 99454.528627                       # average WriteReq mshr miss latency
system.cpu1.dcache.WriteReq_avg_mshr_miss_latency::total 99454.528627                       # average WriteReq mshr miss latency
system.cpu1.dcache.LoadLockedReq_hits::.cpu1.data      2175418                       # number of LoadLockedReq hits
system.cpu1.dcache.LoadLockedReq_hits::total      2175418                       # number of LoadLockedReq hits
system.cpu1.dcache.LoadLockedReq_misses::.cpu1.data         7776                       # number of LoadLockedReq misses
system.cpu1.dcache.LoadLockedReq_misses::total         7776                       # number of LoadLockedReq misses
system.cpu1.dcache.LoadLockedReq_miss_latency::.cpu1.data    157052500                       # number of LoadLockedReq miss cycles
system.cpu1.dcache.LoadLockedReq_miss_latency::total    157052500                       # number of LoadLockedReq miss cycles
system.cpu1.dcache.LoadLockedReq_accesses::.cpu1.data      2183194                       # number of LoadLockedReq accesses(hits+misses)
system.cpu1.dcache.LoadLockedReq_accesses::total      2183194                       # number of LoadLockedReq accesses(hits+misses)
system.cpu1.dcache.LoadLockedReq_miss_rate::.cpu1.data     0.003562                       # miss rate for LoadLockedReq accesses
system.cpu1.dcache.LoadLockedReq_miss_rate::total     0.003562                       # miss rate for LoadLockedReq accesses
system.cpu1.dcache.LoadLockedReq_avg_miss_latency::.cpu1.data 20197.080761                       # average LoadLockedReq miss latency
system.cpu1.dcache.LoadLockedReq_avg_miss_latency::total 20197.080761                       # average LoadLockedReq miss latency
system.cpu1.dcache.LoadLockedReq_mshr_hits::.cpu1.data         1162                       # number of LoadLockedReq MSHR hits
system.cpu1.dcache.LoadLockedReq_mshr_hits::total         1162                       # number of LoadLockedReq MSHR hits
system.cpu1.dcache.LoadLockedReq_mshr_misses::.cpu1.data         6614                       # number of LoadLockedReq MSHR misses
system.cpu1.dcache.LoadLockedReq_mshr_misses::total         6614                       # number of LoadLockedReq MSHR misses
system.cpu1.dcache.LoadLockedReq_mshr_miss_latency::.cpu1.data    131016500                       # number of LoadLockedReq MSHR miss cycles
system.cpu1.dcache.LoadLockedReq_mshr_miss_latency::total    131016500                       # number of LoadLockedReq MSHR miss cycles
system.cpu1.dcache.LoadLockedReq_mshr_miss_rate::.cpu1.data     0.003030                       # mshr miss rate for LoadLockedReq accesses
system.cpu1.dcache.LoadLockedReq_mshr_miss_rate::total     0.003030                       # mshr miss rate for LoadLockedReq accesses
system.cpu1.dcache.LoadLockedReq_avg_mshr_miss_latency::.cpu1.data 19808.965830                       # average LoadLockedReq mshr miss latency
system.cpu1.dcache.LoadLockedReq_avg_mshr_miss_latency::total 19808.965830                       # average LoadLockedReq mshr miss latency
system.cpu1.dcache.StoreCondReq_hits::.cpu1.data      2181834                       # number of StoreCondReq hits
system.cpu1.dcache.StoreCondReq_hits::total      2181834                       # number of StoreCondReq hits
system.cpu1.dcache.StoreCondReq_misses::.cpu1.data         1062                       # number of StoreCondReq misses
system.cpu1.dcache.StoreCondReq_misses::total         1062                       # number of StoreCondReq misses
system.cpu1.dcache.StoreCondReq_miss_latency::.cpu1.data     15524000                       # number of StoreCondReq miss cycles
system.cpu1.dcache.StoreCondReq_miss_latency::total     15524000                       # number of StoreCondReq miss cycles
system.cpu1.dcache.StoreCondReq_accesses::.cpu1.data      2182896                       # number of StoreCondReq accesses(hits+misses)
system.cpu1.dcache.StoreCondReq_accesses::total      2182896                       # number of StoreCondReq accesses(hits+misses)
system.cpu1.dcache.StoreCondReq_miss_rate::.cpu1.data     0.000487                       # miss rate for StoreCondReq accesses
system.cpu1.dcache.StoreCondReq_miss_rate::total     0.000487                       # miss rate for StoreCondReq accesses
system.cpu1.dcache.StoreCondReq_avg_miss_latency::.cpu1.data 14617.702448                       # average StoreCondReq miss latency
system.cpu1.dcache.StoreCondReq_avg_miss_latency::total 14617.702448                       # average StoreCondReq miss latency
system.cpu1.dcache.StoreCondReq_mshr_misses::.cpu1.data         1047                       # number of StoreCondReq MSHR misses
system.cpu1.dcache.StoreCondReq_mshr_misses::total         1047                       # number of StoreCondReq MSHR misses
system.cpu1.dcache.StoreCondReq_mshr_miss_latency::.cpu1.data     14481000                       # number of StoreCondReq MSHR miss cycles
system.cpu1.dcache.StoreCondReq_mshr_miss_latency::total     14481000                       # number of StoreCondReq MSHR miss cycles
system.cpu1.dcache.StoreCondReq_mshr_miss_rate::.cpu1.data     0.000480                       # mshr miss rate for StoreCondReq accesses
system.cpu1.dcache.StoreCondReq_mshr_miss_rate::total     0.000480                       # mshr miss rate for StoreCondReq accesses
system.cpu1.dcache.StoreCondReq_avg_mshr_miss_latency::.cpu1.data 13830.945559                       # average StoreCondReq mshr miss latency
system.cpu1.dcache.StoreCondReq_avg_mshr_miss_latency::total 13830.945559                       # average StoreCondReq mshr miss latency
system.cpu1.dcache.StoreCondFailReq_miss_latency::.cpu1.data        52500                       # number of StoreCondFailReq miss cycles
system.cpu1.dcache.StoreCondFailReq_miss_latency::total        52500                       # number of StoreCondFailReq miss cycles
system.cpu1.dcache.StoreCondFailReq_avg_miss_latency::.cpu1.data          inf                       # average StoreCondFailReq miss latency
system.cpu1.dcache.StoreCondFailReq_avg_miss_latency::total          inf                       # average StoreCondFailReq miss latency
system.cpu1.dcache.StoreCondFailReq_mshr_miss_latency::.cpu1.data        48500                       # number of StoreCondFailReq MSHR miss cycles
system.cpu1.dcache.StoreCondFailReq_mshr_miss_latency::total        48500                       # number of StoreCondFailReq MSHR miss cycles
system.cpu1.dcache.StoreCondFailReq_avg_mshr_miss_latency::.cpu1.data          inf                       # average StoreCondFailReq mshr miss latency
system.cpu1.dcache.StoreCondFailReq_avg_mshr_miss_latency::total          inf                       # average StoreCondFailReq mshr miss latency
system.cpu1.dcache.SwapReq_hits::.cpu1.data          479                       # number of SwapReq hits
system.cpu1.dcache.SwapReq_hits::total            479                       # number of SwapReq hits
system.cpu1.dcache.SwapReq_misses::.cpu1.data         1894                       # number of SwapReq misses
system.cpu1.dcache.SwapReq_misses::total         1894                       # number of SwapReq misses
system.cpu1.dcache.SwapReq_miss_latency::.cpu1.data    143574999                       # number of SwapReq miss cycles
system.cpu1.dcache.SwapReq_miss_latency::total    143574999                       # number of SwapReq miss cycles
system.cpu1.dcache.SwapReq_accesses::.cpu1.data         2373                       # number of SwapReq accesses(hits+misses)
system.cpu1.dcache.SwapReq_accesses::total         2373                       # number of SwapReq accesses(hits+misses)
system.cpu1.dcache.SwapReq_miss_rate::.cpu1.data     0.798146                       # miss rate for SwapReq accesses
system.cpu1.dcache.SwapReq_miss_rate::total     0.798146                       # miss rate for SwapReq accesses
system.cpu1.dcache.SwapReq_avg_miss_latency::.cpu1.data 75805.173706                       # average SwapReq miss latency
system.cpu1.dcache.SwapReq_avg_miss_latency::total 75805.173706                       # average SwapReq miss latency
system.cpu1.dcache.SwapReq_mshr_misses::.cpu1.data         1894                       # number of SwapReq MSHR misses
system.cpu1.dcache.SwapReq_mshr_misses::total         1894                       # number of SwapReq MSHR misses
system.cpu1.dcache.SwapReq_mshr_miss_latency::.cpu1.data    141680999                       # number of SwapReq MSHR miss cycles
system.cpu1.dcache.SwapReq_mshr_miss_latency::total    141680999                       # number of SwapReq MSHR miss cycles
system.cpu1.dcache.SwapReq_mshr_miss_rate::.cpu1.data     0.798146                       # mshr miss rate for SwapReq accesses
system.cpu1.dcache.SwapReq_mshr_miss_rate::total     0.798146                       # mshr miss rate for SwapReq accesses
system.cpu1.dcache.SwapReq_avg_mshr_miss_latency::.cpu1.data 74805.173706                       # average SwapReq mshr miss latency
system.cpu1.dcache.SwapReq_avg_mshr_miss_latency::total 74805.173706                       # average SwapReq mshr miss latency
system.cpu1.dcache.tags.pwrStateResidencyTicks::UNDEFINED 1093031548000                       # Cumulative time (in ticks) in various power states
system.cpu1.dcache.tags.tagsinuse           31.984247                       # Cycle average of tags in use
system.cpu1.dcache.tags.total_refs          167457400                       # Total number of references to valid blocks.
system.cpu1.dcache.tags.sampled_refs         13137152                       # Sample count of references to valid blocks.
system.cpu1.dcache.tags.avg_refs            12.746857                       # Average number of references to valid blocks.
system.cpu1.dcache.tags.warmup_cycle                0                       # Cycle when the warmup percentage was hit.
system.cpu1.dcache.tags.occ_blocks::.cpu1.data    31.984247                       # Average occupied blocks per requestor
system.cpu1.dcache.tags.occ_percent::.cpu1.data     0.999508                       # Average percentage of cache occupancy
system.cpu1.dcache.tags.occ_percent::total     0.999508                       # Average percentage of cache occupancy
system.cpu1.dcache.tags.occ_task_id_blocks::1024           30                       # Occupied blocks per task id
system.cpu1.dcache.tags.age_task_id_blocks_1024::2           30                       # Occupied blocks per task id
system.cpu1.dcache.tags.occ_task_id_percent::1024     0.937500                       # Percentage of cache occupancy per task id
system.cpu1.dcache.tags.tag_accesses        386087800                       # Number of tag accesses
system.cpu1.dcache.tags.data_accesses       386087800                       # Number of data accesses
system.cpu_clk_domain.clock                       500                       # Clock period in ticks
system.tol2bus.pwrStateResidencyTicks::UNDEFINED 1093031548000                       # Cumulative time (in ticks) in various power states
system.tol2bus.trans_dist::ReadResp          30857260                       # Transaction distribution
system.tol2bus.trans_dist::WritebackDirty     10625447                       # Transaction distribution
system.tol2bus.trans_dist::WritebackClean     25840564                       # Transaction distribution
system.tol2bus.trans_dist::CleanEvict        50167039                       # Transaction distribution
system.tol2bus.trans_dist::HardPFReq         14814664                       # Transaction distribution
system.tol2bus.trans_dist::HardPFResp               3                       # Transaction distribution
system.tol2bus.trans_dist::UpgradeReq            9478                       # Transaction distribution
system.tol2bus.trans_dist::SCUpgradeReq          2159                       # Transaction distribution
system.tol2bus.trans_dist::UpgradeResp          11637                       # Transaction distribution
system.tol2bus.trans_dist::SCUpgradeFailReq            8                       # Transaction distribution
system.tol2bus.trans_dist::UpgradeFailResp            8                       # Transaction distribution
system.tol2bus.trans_dist::ReadExReq           496253                       # Transaction distribution
system.tol2bus.trans_dist::ReadExResp          496253                       # Transaction distribution
system.tol2bus.trans_dist::ReadCleanReq        413320                       # Transaction distribution
system.tol2bus.trans_dist::ReadSharedReq     30443941                       # Transaction distribution
system.tol2bus.trans_dist::InvalidateReq          236                       # Transaction distribution
system.tol2bus.trans_dist::InvalidateResp          236                       # Transaction distribution
system.tol2bus.pkt_count_system.cpu0.icache.mem_side::system.l2.cpu_side      1222987                       # Packet count per connected master and slave (bytes)
system.tol2bus.pkt_count_system.cpu0.dcache.mem_side::system.l2.cpu_side     53405125                       # Packet count per connected master and slave (bytes)
system.tol2bus.pkt_count_system.cpu1.icache.mem_side::system.l2.cpu_side        16971                       # Packet count per connected master and slave (bytes)
system.tol2bus.pkt_count_system.cpu1.dcache.mem_side::system.l2.cpu_side     39411135                       # Packet count per connected master and slave (bytes)
system.tol2bus.pkt_count::total              94056218                       # Packet count per connected master and slave (bytes)
system.tol2bus.pkt_size_system.cpu0.icache.mem_side::system.l2.cpu_side     52180736                       # Cumulative packet size per connected master and slave (bytes)
system.tol2bus.pkt_size_system.cpu0.dcache.mem_side::system.l2.cpu_side   2277894720                       # Cumulative packet size per connected master and slave (bytes)
system.tol2bus.pkt_size_system.cpu1.icache.mem_side::system.l2.cpu_side       724096                       # Cumulative packet size per connected master and slave (bytes)
system.tol2bus.pkt_size_system.cpu1.dcache.mem_side::system.l2.cpu_side   1680766656                       # Cumulative packet size per connected master and slave (bytes)
system.tol2bus.pkt_size::total             4011566208                       # Cumulative packet size per connected master and slave (bytes)
system.tol2bus.snoops                        70122291                       # Total snoops (count)
system.tol2bus.snoopTraffic                 328884224                       # Total snoop traffic (bytes)
system.tol2bus.snoop_fanout::samples        101470924                       # Request fanout histogram
system.tol2bus.snoop_fanout::mean            0.227751                       # Request fanout histogram
system.tol2bus.snoop_fanout::stdev           0.430114                       # Request fanout histogram
system.tol2bus.snoop_fanout::underflows             0      0.00%      0.00% # Request fanout histogram
system.tol2bus.snoop_fanout::0               78823447     77.68%     77.68% # Request fanout histogram
system.tol2bus.snoop_fanout::1               22184876     21.86%     99.54% # Request fanout histogram
system.tol2bus.snoop_fanout::2                 462601      0.46%    100.00% # Request fanout histogram
system.tol2bus.snoop_fanout::3                      0      0.00%    100.00% # Request fanout histogram
system.tol2bus.snoop_fanout::4                      0      0.00%    100.00% # Request fanout histogram
system.tol2bus.snoop_fanout::5                      0      0.00%    100.00% # Request fanout histogram
system.tol2bus.snoop_fanout::6                      0      0.00%    100.00% # Request fanout histogram
system.tol2bus.snoop_fanout::7                      0      0.00%    100.00% # Request fanout histogram
system.tol2bus.snoop_fanout::8                      0      0.00%    100.00% # Request fanout histogram
system.tol2bus.snoop_fanout::overflows              0      0.00%    100.00% # Request fanout histogram
system.tol2bus.snoop_fanout::min_value              0                       # Request fanout histogram
system.tol2bus.snoop_fanout::max_value              2                       # Request fanout histogram
system.tol2bus.snoop_fanout::total          101470924                       # Request fanout histogram
system.tol2bus.reqLayer0.occupancy        62697122381                       # Layer occupancy (ticks)
system.tol2bus.reqLayer0.utilization              5.7                       # Layer utilization (%)
system.tol2bus.respLayer1.occupancy       26717405838                       # Layer occupancy (ticks)
system.tol2bus.respLayer1.utilization             2.4                       # Layer utilization (%)
system.tol2bus.respLayer0.occupancy         611621243                       # Layer occupancy (ticks)
system.tol2bus.respLayer0.utilization             0.1                       # Layer utilization (%)
system.tol2bus.respLayer3.occupancy       19718278704                       # Layer occupancy (ticks)
system.tol2bus.respLayer3.utilization             1.8                       # Layer utilization (%)
system.tol2bus.respLayer2.occupancy           8534901                       # Layer occupancy (ticks)
system.tol2bus.respLayer2.utilization             0.0                       # Layer utilization (%)
system.tol2bus.snoopLayer0.occupancy             4504                       # Layer occupancy (ticks)
system.tol2bus.snoopLayer0.utilization            0.0                       # Layer utilization (%)

---------- End Simulation Statistics   ----------
