
---------- Begin Simulation Statistics ----------
<<<<<<< HEAD
final_tick                               1177028907000                       # Number of ticks from beginning of simulation (restored from checkpoints and never reset)
host_inst_rate                                  80472                       # Simulator instruction rate (inst/s)
host_mem_usage                                 738792                       # Number of bytes of host memory used
host_op_rate                                    80707                       # Simulator op (including micro ops) rate (op/s)
host_seconds                                 17905.65                       # Real time elapsed on the host
host_tick_rate                               65735061                       # Simulator tick rate (ticks/s)
sim_freq                                 1000000000000                       # Frequency of simulated ticks
sim_insts                                  1440908138                       # Number of instructions simulated
sim_ops                                    1445113150                       # Number of ops (including micro ops) simulated
sim_seconds                                  1.177029                       # Number of seconds simulated
sim_ticks                                1177028907000                       # Number of ticks simulated
system.cpu0.branchPred.BTBCorrect                   0                       # Number of correct BTB predictions (this stat may not work properly.
system.cpu0.branchPred.BTBHitPct            88.054974                       # BTB Hit Percentage
system.cpu0.branchPred.BTBHits              170554329                       # Number of BTB hits
system.cpu0.branchPred.BTBLookups           193690738                       # Number of BTB lookups
system.cpu0.branchPred.RASInCorrect                 0                       # Number of incorrect RAS predictions.
system.cpu0.branchPred.condIncorrect         16579557                       # Number of conditional branches incorrect
system.cpu0.branchPred.condPredicted        264765035                       # Number of conditional branches predicted
system.cpu0.branchPred.indirectHits          20747283                       # Number of indirect target hits.
system.cpu0.branchPred.indirectLookups       21457946                       # Number of indirect predictor lookups.
system.cpu0.branchPred.indirectMisses          710663                       # Number of indirect misses.
system.cpu0.branchPred.lookups              334184165                       # Number of BP lookups
system.cpu0.branchPred.usedRAS                      0                       # Number of times the RAS was used to get a target.
system.cpu0.branchPredindirectMispredicted      2150064                       # Number of mispredicted indirect branches.
system.cpu0.commit.amos                       1050461                       # Number of atomic instructions committed
system.cpu0.commit.branchMispredicts         10012555                       # The number of times a branch was mispredicted
system.cpu0.commit.branches                 313654249                       # Number of branches committed
system.cpu0.commit.bw_lim_events             31428699                       # number cycles where commit BW limit reached
system.cpu0.commit.commitNonSpecStalls        3160647                       # The number of times commit has been forced to stall to communicate backwards
system.cpu0.commit.commitSquashedInsts       69079552                       # The number of squashed insts skipped by commit
system.cpu0.commit.committedInsts          1250509345                       # Number of instructions committed
system.cpu0.commit.committedOps            1251563106                       # Number of ops (including micro ops) committed
system.cpu0.commit.committed_per_cycle::samples   2182260452                       # Number of insts commited each cycle
system.cpu0.commit.committed_per_cycle::mean     0.573517                       # Number of insts commited each cycle
system.cpu0.commit.committed_per_cycle::stdev     1.302694                       # Number of insts commited each cycle
system.cpu0.commit.committed_per_cycle::underflows            0      0.00%      0.00% # Number of insts commited each cycle
system.cpu0.commit.committed_per_cycle::0   1560543659     71.51%     71.51% # Number of insts commited each cycle
system.cpu0.commit.committed_per_cycle::1    368136474     16.87%     88.38% # Number of insts commited each cycle
system.cpu0.commit.committed_per_cycle::2     97215974      4.45%     92.83% # Number of insts commited each cycle
system.cpu0.commit.committed_per_cycle::3     89000100      4.08%     96.91% # Number of insts commited each cycle
system.cpu0.commit.committed_per_cycle::4     22074664      1.01%     97.92% # Number of insts commited each cycle
system.cpu0.commit.committed_per_cycle::5      5589798      0.26%     98.18% # Number of insts commited each cycle
system.cpu0.commit.committed_per_cycle::6      3580442      0.16%     98.34% # Number of insts commited each cycle
system.cpu0.commit.committed_per_cycle::7      4690642      0.21%     98.56% # Number of insts commited each cycle
system.cpu0.commit.committed_per_cycle::8     31428699      1.44%    100.00% # Number of insts commited each cycle
system.cpu0.commit.committed_per_cycle::overflows            0      0.00%    100.00% # Number of insts commited each cycle
system.cpu0.commit.committed_per_cycle::min_value            0                       # Number of insts commited each cycle
system.cpu0.commit.committed_per_cycle::max_value            8                       # Number of insts commited each cycle
system.cpu0.commit.committed_per_cycle::total   2182260452                       # Number of insts commited each cycle
system.cpu0.commit.fp_insts                        50                       # Number of committed floating point instructions.
system.cpu0.commit.function_calls            24112943                       # Number of function calls committed.
system.cpu0.commit.int_insts               1209809351                       # Number of committed integer instructions.
system.cpu0.commit.loads                    388697707                       # Number of loads committed
system.cpu0.commit.membars                    2104082                       # Number of memory barriers committed
system.cpu0.commit.op_class_0::No_OpClass      2104088      0.17%      0.17% # Class of committed instruction
system.cpu0.commit.op_class_0::IntAlu       699523524     55.89%     56.06% # Class of committed instruction
system.cpu0.commit.op_class_0::IntMult       11831882      0.95%     57.01% # Class of committed instruction
system.cpu0.commit.op_class_0::IntDiv         2099835      0.17%     57.17% # Class of committed instruction
system.cpu0.commit.op_class_0::FloatAdd             0      0.00%     57.17% # Class of committed instruction
system.cpu0.commit.op_class_0::FloatCmp             4      0.00%     57.17% # Class of committed instruction
system.cpu0.commit.op_class_0::FloatCvt            12      0.00%     57.17% # Class of committed instruction
system.cpu0.commit.op_class_0::FloatMult            0      0.00%     57.17% # Class of committed instruction
system.cpu0.commit.op_class_0::FloatMultAcc            0      0.00%     57.17% # Class of committed instruction
system.cpu0.commit.op_class_0::FloatDiv             2      0.00%     57.17% # Class of committed instruction
system.cpu0.commit.op_class_0::FloatMisc            4      0.00%     57.17% # Class of committed instruction
system.cpu0.commit.op_class_0::FloatSqrt            0      0.00%     57.17% # Class of committed instruction
system.cpu0.commit.op_class_0::SimdAdd              0      0.00%     57.17% # Class of committed instruction
system.cpu0.commit.op_class_0::SimdAddAcc            0      0.00%     57.17% # Class of committed instruction
system.cpu0.commit.op_class_0::SimdAlu              0      0.00%     57.17% # Class of committed instruction
system.cpu0.commit.op_class_0::SimdCmp              0      0.00%     57.17% # Class of committed instruction
system.cpu0.commit.op_class_0::SimdCvt              0      0.00%     57.17% # Class of committed instruction
system.cpu0.commit.op_class_0::SimdMisc             0      0.00%     57.17% # Class of committed instruction
system.cpu0.commit.op_class_0::SimdMult             0      0.00%     57.17% # Class of committed instruction
system.cpu0.commit.op_class_0::SimdMultAcc            0      0.00%     57.17% # Class of committed instruction
system.cpu0.commit.op_class_0::SimdShift            0      0.00%     57.17% # Class of committed instruction
system.cpu0.commit.op_class_0::SimdShiftAcc            0      0.00%     57.17% # Class of committed instruction
system.cpu0.commit.op_class_0::SimdDiv              0      0.00%     57.17% # Class of committed instruction
system.cpu0.commit.op_class_0::SimdSqrt             0      0.00%     57.17% # Class of committed instruction
system.cpu0.commit.op_class_0::SimdFloatAdd            0      0.00%     57.17% # Class of committed instruction
system.cpu0.commit.op_class_0::SimdFloatAlu            0      0.00%     57.17% # Class of committed instruction
system.cpu0.commit.op_class_0::SimdFloatCmp            0      0.00%     57.17% # Class of committed instruction
system.cpu0.commit.op_class_0::SimdFloatCvt            0      0.00%     57.17% # Class of committed instruction
system.cpu0.commit.op_class_0::SimdFloatDiv            0      0.00%     57.17% # Class of committed instruction
system.cpu0.commit.op_class_0::SimdFloatMisc            0      0.00%     57.17% # Class of committed instruction
system.cpu0.commit.op_class_0::SimdFloatMult            0      0.00%     57.17% # Class of committed instruction
system.cpu0.commit.op_class_0::SimdFloatMultAcc            0      0.00%     57.17% # Class of committed instruction
system.cpu0.commit.op_class_0::SimdFloatSqrt            0      0.00%     57.17% # Class of committed instruction
system.cpu0.commit.op_class_0::SimdReduceAdd            0      0.00%     57.17% # Class of committed instruction
system.cpu0.commit.op_class_0::SimdReduceAlu            0      0.00%     57.17% # Class of committed instruction
system.cpu0.commit.op_class_0::SimdReduceCmp            0      0.00%     57.17% # Class of committed instruction
system.cpu0.commit.op_class_0::SimdFloatReduceAdd            0      0.00%     57.17% # Class of committed instruction
system.cpu0.commit.op_class_0::SimdFloatReduceCmp            0      0.00%     57.17% # Class of committed instruction
system.cpu0.commit.op_class_0::SimdAes              0      0.00%     57.17% # Class of committed instruction
system.cpu0.commit.op_class_0::SimdAesMix            0      0.00%     57.17% # Class of committed instruction
system.cpu0.commit.op_class_0::SimdSha1Hash            0      0.00%     57.17% # Class of committed instruction
system.cpu0.commit.op_class_0::SimdSha1Hash2            0      0.00%     57.17% # Class of committed instruction
system.cpu0.commit.op_class_0::SimdSha256Hash            0      0.00%     57.17% # Class of committed instruction
system.cpu0.commit.op_class_0::SimdSha256Hash2            0      0.00%     57.17% # Class of committed instruction
system.cpu0.commit.op_class_0::SimdShaSigma2            0      0.00%     57.17% # Class of committed instruction
system.cpu0.commit.op_class_0::SimdShaSigma3            0      0.00%     57.17% # Class of committed instruction
system.cpu0.commit.op_class_0::SimdPredAlu            0      0.00%     57.17% # Class of committed instruction
system.cpu0.commit.op_class_0::MemRead      389748160     31.14%     88.31% # Class of committed instruction
system.cpu0.commit.op_class_0::MemWrite     146255567     11.69%    100.00% # Class of committed instruction
=======
final_tick                               1290294176000                       # Number of ticks from beginning of simulation (restored from checkpoints and never reset)
host_inst_rate                                 105952                       # Simulator instruction rate (inst/s)
host_mem_usage                                 702544                       # Number of bytes of host memory used
host_op_rate                                   106262                       # Simulator op (including micro ops) rate (op/s)
host_seconds                                 13559.10                       # Real time elapsed on the host
host_tick_rate                               95160746                       # Simulator tick rate (ticks/s)
sim_freq                                 1000000000000                       # Frequency of simulated ticks
sim_insts                                  1436619837                       # Number of instructions simulated
sim_ops                                    1440823586                       # Number of ops (including micro ops) simulated
sim_seconds                                  1.290294                       # Number of seconds simulated
sim_ticks                                1290294176000                       # Number of ticks simulated
system.cpu0.branchPred.BTBCorrect                   0                       # Number of correct BTB predictions (this stat may not work properly.
system.cpu0.branchPred.BTBHitPct            87.611297                       # BTB Hit Percentage
system.cpu0.branchPred.BTBHits              183574997                       # Number of BTB hits
system.cpu0.branchPred.BTBLookups           209533478                       # Number of BTB lookups
system.cpu0.branchPred.RASInCorrect                 0                       # Number of incorrect RAS predictions.
system.cpu0.branchPred.condIncorrect         17092976                       # Number of conditional branches incorrect
system.cpu0.branchPred.condPredicted        288578049                       # Number of conditional branches predicted
system.cpu0.branchPred.indirectHits          22148336                       # Number of indirect target hits.
system.cpu0.branchPred.indirectLookups       23684074                       # Number of indirect predictor lookups.
system.cpu0.branchPred.indirectMisses         1535738                       # Number of indirect misses.
system.cpu0.branchPred.lookups              363046785                       # Number of BP lookups
system.cpu0.branchPred.usedRAS                      0                       # Number of times the RAS was used to get a target.
system.cpu0.branchPredindirectMispredicted      2194644                       # Number of mispredicted indirect branches.
system.cpu0.commit.amos                       2100264                       # Number of atomic instructions committed
system.cpu0.commit.branchMispredicts         10756610                       # The number of times a branch was mispredicted
system.cpu0.commit.branches                 329546213                       # Number of branches committed
system.cpu0.commit.bw_lim_events             35091796                       # number cycles where commit BW limit reached
system.cpu0.commit.commitNonSpecStalls        6309713                       # The number of times commit has been forced to stall to communicate backwards
system.cpu0.commit.commitSquashedInsts      121343655                       # The number of squashed insts skipped by commit
system.cpu0.commit.committedInsts          1316552584                       # Number of instructions committed
system.cpu0.commit.committedOps            1318656151                       # Number of ops (including micro ops) committed
system.cpu0.commit.committed_per_cycle::samples   2394339943                       # Number of insts commited each cycle
system.cpu0.commit.committed_per_cycle::mean     0.550739                       # Number of insts commited each cycle
system.cpu0.commit.committed_per_cycle::stdev     1.299445                       # Number of insts commited each cycle
system.cpu0.commit.committed_per_cycle::underflows            0      0.00%      0.00% # Number of insts commited each cycle
system.cpu0.commit.committed_per_cycle::0   1751550020     73.15%     73.15% # Number of insts commited each cycle
system.cpu0.commit.committed_per_cycle::1    376646518     15.73%     88.88% # Number of insts commited each cycle
system.cpu0.commit.committed_per_cycle::2     99422233      4.15%     93.04% # Number of insts commited each cycle
system.cpu0.commit.committed_per_cycle::3     92622446      3.87%     96.91% # Number of insts commited each cycle
system.cpu0.commit.committed_per_cycle::4     23271117      0.97%     97.88% # Number of insts commited each cycle
system.cpu0.commit.committed_per_cycle::5      7370387      0.31%     98.19% # Number of insts commited each cycle
system.cpu0.commit.committed_per_cycle::6      3930924      0.16%     98.35% # Number of insts commited each cycle
system.cpu0.commit.committed_per_cycle::7      4434502      0.19%     98.53% # Number of insts commited each cycle
system.cpu0.commit.committed_per_cycle::8     35091796      1.47%    100.00% # Number of insts commited each cycle
system.cpu0.commit.committed_per_cycle::overflows            0      0.00%    100.00% # Number of insts commited each cycle
system.cpu0.commit.committed_per_cycle::min_value            0                       # Number of insts commited each cycle
system.cpu0.commit.committed_per_cycle::max_value            8                       # Number of insts commited each cycle
system.cpu0.commit.committed_per_cycle::total   2394339943                       # Number of insts commited each cycle
system.cpu0.commit.fp_insts                        50                       # Number of committed floating point instructions.
system.cpu0.commit.function_calls            25143413                       # Number of function calls committed.
system.cpu0.commit.int_insts               1273924270                       # Number of committed integer instructions.
system.cpu0.commit.loads                    405171532                       # Number of loads committed
system.cpu0.commit.membars                    4203720                       # Number of memory barriers committed
system.cpu0.commit.op_class_0::No_OpClass      4203726      0.32%      0.32% # Class of committed instruction
system.cpu0.commit.op_class_0::IntAlu       742064582     56.27%     56.59% # Class of committed instruction
system.cpu0.commit.op_class_0::IntMult       11831782      0.90%     57.49% # Class of committed instruction
system.cpu0.commit.op_class_0::IntDiv         2099835      0.16%     57.65% # Class of committed instruction
system.cpu0.commit.op_class_0::FloatAdd             0      0.00%     57.65% # Class of committed instruction
system.cpu0.commit.op_class_0::FloatCmp             4      0.00%     57.65% # Class of committed instruction
system.cpu0.commit.op_class_0::FloatCvt            12      0.00%     57.65% # Class of committed instruction
system.cpu0.commit.op_class_0::FloatMult            0      0.00%     57.65% # Class of committed instruction
system.cpu0.commit.op_class_0::FloatMultAcc            0      0.00%     57.65% # Class of committed instruction
system.cpu0.commit.op_class_0::FloatDiv             2      0.00%     57.65% # Class of committed instruction
system.cpu0.commit.op_class_0::FloatMisc            4      0.00%     57.65% # Class of committed instruction
system.cpu0.commit.op_class_0::FloatSqrt            0      0.00%     57.65% # Class of committed instruction
system.cpu0.commit.op_class_0::SimdAdd              0      0.00%     57.65% # Class of committed instruction
system.cpu0.commit.op_class_0::SimdAddAcc            0      0.00%     57.65% # Class of committed instruction
system.cpu0.commit.op_class_0::SimdAlu              0      0.00%     57.65% # Class of committed instruction
system.cpu0.commit.op_class_0::SimdCmp              0      0.00%     57.65% # Class of committed instruction
system.cpu0.commit.op_class_0::SimdCvt              0      0.00%     57.65% # Class of committed instruction
system.cpu0.commit.op_class_0::SimdMisc             0      0.00%     57.65% # Class of committed instruction
system.cpu0.commit.op_class_0::SimdMult             0      0.00%     57.65% # Class of committed instruction
system.cpu0.commit.op_class_0::SimdMultAcc            0      0.00%     57.65% # Class of committed instruction
system.cpu0.commit.op_class_0::SimdShift            0      0.00%     57.65% # Class of committed instruction
system.cpu0.commit.op_class_0::SimdShiftAcc            0      0.00%     57.65% # Class of committed instruction
system.cpu0.commit.op_class_0::SimdDiv              0      0.00%     57.65% # Class of committed instruction
system.cpu0.commit.op_class_0::SimdSqrt             0      0.00%     57.65% # Class of committed instruction
system.cpu0.commit.op_class_0::SimdFloatAdd            0      0.00%     57.65% # Class of committed instruction
system.cpu0.commit.op_class_0::SimdFloatAlu            0      0.00%     57.65% # Class of committed instruction
system.cpu0.commit.op_class_0::SimdFloatCmp            0      0.00%     57.65% # Class of committed instruction
system.cpu0.commit.op_class_0::SimdFloatCvt            0      0.00%     57.65% # Class of committed instruction
system.cpu0.commit.op_class_0::SimdFloatDiv            0      0.00%     57.65% # Class of committed instruction
system.cpu0.commit.op_class_0::SimdFloatMisc            0      0.00%     57.65% # Class of committed instruction
system.cpu0.commit.op_class_0::SimdFloatMult            0      0.00%     57.65% # Class of committed instruction
system.cpu0.commit.op_class_0::SimdFloatMultAcc            0      0.00%     57.65% # Class of committed instruction
system.cpu0.commit.op_class_0::SimdFloatSqrt            0      0.00%     57.65% # Class of committed instruction
system.cpu0.commit.op_class_0::SimdReduceAdd            0      0.00%     57.65% # Class of committed instruction
system.cpu0.commit.op_class_0::SimdReduceAlu            0      0.00%     57.65% # Class of committed instruction
system.cpu0.commit.op_class_0::SimdReduceCmp            0      0.00%     57.65% # Class of committed instruction
system.cpu0.commit.op_class_0::SimdFloatReduceAdd            0      0.00%     57.65% # Class of committed instruction
system.cpu0.commit.op_class_0::SimdFloatReduceCmp            0      0.00%     57.65% # Class of committed instruction
system.cpu0.commit.op_class_0::SimdAes              0      0.00%     57.65% # Class of committed instruction
system.cpu0.commit.op_class_0::SimdAesMix            0      0.00%     57.65% # Class of committed instruction
system.cpu0.commit.op_class_0::SimdSha1Hash            0      0.00%     57.65% # Class of committed instruction
system.cpu0.commit.op_class_0::SimdSha1Hash2            0      0.00%     57.65% # Class of committed instruction
system.cpu0.commit.op_class_0::SimdSha256Hash            0      0.00%     57.65% # Class of committed instruction
system.cpu0.commit.op_class_0::SimdSha256Hash2            0      0.00%     57.65% # Class of committed instruction
system.cpu0.commit.op_class_0::SimdShaSigma2            0      0.00%     57.65% # Class of committed instruction
system.cpu0.commit.op_class_0::SimdShaSigma3            0      0.00%     57.65% # Class of committed instruction
system.cpu0.commit.op_class_0::SimdPredAlu            0      0.00%     57.65% # Class of committed instruction
system.cpu0.commit.op_class_0::MemRead      407271788     30.89%     88.53% # Class of committed instruction
system.cpu0.commit.op_class_0::MemWrite     151184388     11.47%    100.00% # Class of committed instruction
>>>>>>> 6be7a0502e78ebf80a09b838e3e9c0d652379c93
system.cpu0.commit.op_class_0::FloatMemRead            8      0.00%    100.00% # Class of committed instruction
system.cpu0.commit.op_class_0::FloatMemWrite           20      0.00%    100.00% # Class of committed instruction
system.cpu0.commit.op_class_0::IprAccess            0      0.00%    100.00% # Class of committed instruction
system.cpu0.commit.op_class_0::InstPrefetch            0      0.00%    100.00% # Class of committed instruction
<<<<<<< HEAD
system.cpu0.commit.op_class_0::total       1251563106                       # Class of committed instruction
system.cpu0.commit.refs                     536003755                       # Number of memory references committed
system.cpu0.commit.swp_count                        0                       # Number of s/w prefetches committed
system.cpu0.commit.vec_insts                        0                       # Number of committed Vector instructions.
system.cpu0.committedInsts                 1250509345                       # Number of Instructions Simulated
system.cpu0.committedOps                   1251563106                       # Number of Ops (including micro ops) Simulated
system.cpu0.cpi                              1.876795                       # CPI: Cycles Per Instruction
system.cpu0.cpi_total                        1.876795                       # CPI: Total CPI of All Threads
system.cpu0.decode.BlockedCycles            267952048                       # Number of cycles decode is blocked
system.cpu0.decode.BranchMispred              6593461                       # Number of times decode detected a branch misprediction
system.cpu0.decode.BranchResolved           168994687                       # Number of times decode resolved a branch
system.cpu0.decode.DecodedInsts            1349486585                       # Number of instructions handled by decode
system.cpu0.decode.IdleCycles               977884798                       # Number of cycles decode is idle
system.cpu0.decode.RunCycles                937988812                       # Number of cycles decode is running
system.cpu0.decode.SquashCycles              10025575                       # Number of cycles decode is squashing
system.cpu0.decode.SquashedInsts             13591350                       # Number of squashed instructions handled by decode
system.cpu0.decode.UnblockCycles              3822092                       # Number of cycles decode is unblocking
=======
system.cpu0.commit.op_class_0::total       1318656151                       # Class of committed instruction
system.cpu0.commit.refs                     558456204                       # Number of memory references committed
system.cpu0.commit.swp_count                        0                       # Number of s/w prefetches committed
system.cpu0.commit.vec_insts                        0                       # Number of committed Vector instructions.
system.cpu0.committedInsts                 1316552584                       # Number of Instructions Simulated
system.cpu0.committedOps                   1318656151                       # Number of Ops (including micro ops) Simulated
system.cpu0.cpi                              1.956641                       # CPI: Cycles Per Instruction
system.cpu0.cpi_total                        1.956641                       # CPI: Total CPI of All Threads
system.cpu0.decode.BlockedCycles            420152686                       # Number of cycles decode is blocked
system.cpu0.decode.BranchMispred              6405323                       # Number of times decode detected a branch misprediction
system.cpu0.decode.BranchResolved           181018709                       # Number of times decode resolved a branch
system.cpu0.decode.DecodedInsts            1472893354                       # Number of instructions handled by decode
system.cpu0.decode.IdleCycles               984421692                       # Number of cycles decode is idle
system.cpu0.decode.RunCycles                994814700                       # Number of cycles decode is running
system.cpu0.decode.SquashCycles              10771226                       # Number of cycles decode is squashing
system.cpu0.decode.SquashedInsts             15576549                       # Number of squashed instructions handled by decode
system.cpu0.decode.UnblockCycles              6595906                       # Number of cycles decode is unblocking
>>>>>>> 6be7a0502e78ebf80a09b838e3e9c0d652379c93
system.cpu0.dtb.accesses                            0                       # DTB accesses
system.cpu0.dtb.hits                                0                       # DTB hits
system.cpu0.dtb.misses                              0                       # DTB misses
system.cpu0.dtb.read_accesses                       0                       # DTB read accesses
system.cpu0.dtb.read_hits                           0                       # DTB read hits
system.cpu0.dtb.read_misses                         0                       # DTB read misses
system.cpu0.dtb.write_accesses                      0                       # DTB write accesses
system.cpu0.dtb.write_hits                          0                       # DTB write hits
system.cpu0.dtb.write_misses                        0                       # DTB write misses
<<<<<<< HEAD
system.cpu0.fetch.Branches                  334184165                       # Number of branches that fetch encountered
system.cpu0.fetch.CacheLines                248921846                       # Number of cache lines fetched
system.cpu0.fetch.Cycles                   1228152546                       # Number of cycles fetch has run and was not squashing or blocked
system.cpu0.fetch.IcacheSquashes              5283209                       # Number of outstanding Icache misses that were squashed
system.cpu0.fetch.IcacheWaitRetryStallCycles           82                       # Number of stall cycles due to full MSHR
system.cpu0.fetch.Insts                    1380547947                       # Number of instructions fetch has processed
system.cpu0.fetch.MiscStallCycles                  33                       # Number of cycles fetch has spent waiting on interrupts, or bad addresses, or out of MSHRs
system.cpu0.fetch.PendingTrapStallCycles          119                       # Number of stall cycles due to pending traps
system.cpu0.fetch.SquashCycles               33185192                       # Number of cycles fetch has spent squashing
system.cpu0.fetch.branchRate                 0.142391                       # Number of branch fetches per cycle
system.cpu0.fetch.icacheStallCycles         952927949                       # Number of cycles fetch is stalled on an Icache miss
system.cpu0.fetch.predictedBranches         191301612                       # Number of branches that fetch has predicted taken
system.cpu0.fetch.rate                       0.588231                       # Number of inst fetches per cycle
system.cpu0.fetch.rateDist::samples        2197673325                       # Number of instructions fetched each cycle (Total)
system.cpu0.fetch.rateDist::mean             0.629826                       # Number of instructions fetched each cycle (Total)
system.cpu0.fetch.rateDist::stdev            0.904405                       # Number of instructions fetched each cycle (Total)
system.cpu0.fetch.rateDist::underflows              0      0.00%      0.00% # Number of instructions fetched each cycle (Total)
system.cpu0.fetch.rateDist::0              1223287890     55.66%     55.66% # Number of instructions fetched each cycle (Total)
system.cpu0.fetch.rateDist::1               725209145     33.00%     88.66% # Number of instructions fetched each cycle (Total)
system.cpu0.fetch.rateDist::2               128990726      5.87%     94.53% # Number of instructions fetched each cycle (Total)
system.cpu0.fetch.rateDist::3                98335352      4.47%     99.01% # Number of instructions fetched each cycle (Total)
system.cpu0.fetch.rateDist::4                12369856      0.56%     99.57% # Number of instructions fetched each cycle (Total)
system.cpu0.fetch.rateDist::5                 4619189      0.21%     99.78% # Number of instructions fetched each cycle (Total)
system.cpu0.fetch.rateDist::6                  653145      0.03%     99.81% # Number of instructions fetched each cycle (Total)
system.cpu0.fetch.rateDist::7                 4203820      0.19%    100.00% # Number of instructions fetched each cycle (Total)
system.cpu0.fetch.rateDist::8                    4202      0.00%    100.00% # Number of instructions fetched each cycle (Total)
system.cpu0.fetch.rateDist::overflows               0      0.00%    100.00% # Number of instructions fetched each cycle (Total)
system.cpu0.fetch.rateDist::min_value               0                       # Number of instructions fetched each cycle (Total)
system.cpu0.fetch.rateDist::max_value               8                       # Number of instructions fetched each cycle (Total)
system.cpu0.fetch.rateDist::total          2197673325                       # Number of instructions fetched each cycle (Total)
system.cpu0.fp_regfile_reads                       44                       # number of floating regfile reads
system.cpu0.fp_regfile_writes                      22                       # number of floating regfile writes
system.cpu0.idleCycles                      149276005                       # Total number of cycles that the CPU has spent unscheduled due to idling
system.cpu0.iew.branchMispredicts            10079020                       # Number of branch mispredicts detected at execute
system.cpu0.iew.exec_branches               321417345                       # Number of branches executed
system.cpu0.iew.exec_nop                            0                       # number of nop insts executed
system.cpu0.iew.exec_rate                    0.549202                       # Inst execution rate
system.cpu0.iew.exec_refs                   555927699                       # number of memory reference insts executed
system.cpu0.iew.exec_stores                 149381803                       # Number of stores executed
system.cpu0.iew.exec_swp                            0                       # number of swp insts executed
system.cpu0.iew.iewBlockCycles              200089434                       # Number of cycles IEW is blocking
system.cpu0.iew.iewDispLoadInsts            416626254                       # Number of dispatched load instructions
system.cpu0.iew.iewDispNonSpecInsts           2411208                       # Number of dispatched non-speculative instructions
system.cpu0.iew.iewDispSquashedInsts          5573849                       # Number of squashed instructions skipped by dispatch
system.cpu0.iew.iewDispStoreInsts           152794997                       # Number of dispatched store instructions
system.cpu0.iew.iewDispatchedInsts         1320588930                       # Number of instructions dispatched to IQ
system.cpu0.iew.iewExecLoadInsts            406545896                       # Number of load instructions executed
system.cpu0.iew.iewExecSquashedInsts          7305855                       # Number of squashed instructions skipped in execute
system.cpu0.iew.iewExecutedInsts           1288949720                       # Number of executed instructions
system.cpu0.iew.iewIQFullEvents                981432                       # Number of times the IQ has become full, causing a stall
system.cpu0.iew.iewIdleCycles                       0                       # Number of cycles IEW is idle
system.cpu0.iew.iewLSQFullEvents              9983556                       # Number of times the LSQ has become full, causing a stall
system.cpu0.iew.iewSquashCycles              10025575                       # Number of cycles IEW is squashing
system.cpu0.iew.iewUnblockCycles             12134780                       # Number of cycles IEW is unblocking
system.cpu0.iew.lsq.thread0.blockedLoads            0                       # Number of blocked loads due to partial load-store forwarding
system.cpu0.iew.lsq.thread0.cacheBlocked       179683                       # Number of times an access to memory failed due to the cache being blocked
system.cpu0.iew.lsq.thread0.forwLoads        20243149                       # Number of loads that had data forwarded from stores
system.cpu0.iew.lsq.thread0.ignoredResponses        17430                       # Number of memory responses ignored because the instruction is squashed
system.cpu0.iew.lsq.thread0.invAddrLoads            0                       # Number of loads ignored due to an invalid address
system.cpu0.iew.lsq.thread0.invAddrSwpfs            0                       # Number of software prefetches ignored due to an invalid address
system.cpu0.iew.lsq.thread0.memOrderViolation        11852                       # Number of memory ordering violations
system.cpu0.iew.lsq.thread0.rescheduledLoads      4550577                       # Number of loads that were rescheduled
system.cpu0.iew.lsq.thread0.squashedLoads     27928547                       # Number of loads squashed
system.cpu0.iew.lsq.thread0.squashedStores      5488949                       # Number of stores squashed
system.cpu0.iew.memOrderViolationEvents         11852                       # Number of memory order violations
system.cpu0.iew.predictedNotTakenIncorrect       700382                       # Number of branches that were predicted not taken incorrectly
system.cpu0.iew.predictedTakenIncorrect       9378638                       # Number of branches that were predicted taken incorrectly
system.cpu0.iew.wb_consumers                540499566                       # num instructions consuming a value
system.cpu0.iew.wb_count                   1280163586                       # cumulative count of insts written-back
system.cpu0.iew.wb_fanout                    0.895776                       # average fanout of values written-back
system.cpu0.iew.wb_producers                484166792                       # num instructions producing a value
system.cpu0.iew.wb_rate                      0.545459                       # insts written-back per cycle
system.cpu0.iew.wb_sent                    1280244555                       # cumulative count of insts sent to commit
system.cpu0.int_regfile_reads              1581773322                       # number of integer regfile reads
system.cpu0.int_regfile_writes              819586102                       # number of integer regfile writes
system.cpu0.ipc                              0.532823                       # IPC: Instructions Per Cycle
system.cpu0.ipc_total                        0.532823                       # IPC: Total IPC of All Threads
system.cpu0.iq.FU_type_0::No_OpClass          2106146      0.16%      0.16% # Type of FU issued
system.cpu0.iq.FU_type_0::IntAlu            719867086     55.53%     55.70% # Type of FU issued
system.cpu0.iq.FU_type_0::IntMult            11834086      0.91%     56.61% # Type of FU issued
system.cpu0.iq.FU_type_0::IntDiv              2100409      0.16%     56.77% # Type of FU issued
system.cpu0.iq.FU_type_0::FloatAdd                  0      0.00%     56.77% # Type of FU issued
system.cpu0.iq.FU_type_0::FloatCmp                  4      0.00%     56.77% # Type of FU issued
system.cpu0.iq.FU_type_0::FloatCvt                 12      0.00%     56.77% # Type of FU issued
system.cpu0.iq.FU_type_0::FloatMult                 0      0.00%     56.77% # Type of FU issued
system.cpu0.iq.FU_type_0::FloatMultAcc              0      0.00%     56.77% # Type of FU issued
system.cpu0.iq.FU_type_0::FloatDiv                  2      0.00%     56.77% # Type of FU issued
system.cpu0.iq.FU_type_0::FloatMisc                 4      0.00%     56.77% # Type of FU issued
system.cpu0.iq.FU_type_0::FloatSqrt                 0      0.00%     56.77% # Type of FU issued
system.cpu0.iq.FU_type_0::SimdAdd                   0      0.00%     56.77% # Type of FU issued
system.cpu0.iq.FU_type_0::SimdAddAcc                0      0.00%     56.77% # Type of FU issued
system.cpu0.iq.FU_type_0::SimdAlu                   0      0.00%     56.77% # Type of FU issued
system.cpu0.iq.FU_type_0::SimdCmp                   0      0.00%     56.77% # Type of FU issued
system.cpu0.iq.FU_type_0::SimdCvt                   0      0.00%     56.77% # Type of FU issued
system.cpu0.iq.FU_type_0::SimdMisc                  0      0.00%     56.77% # Type of FU issued
system.cpu0.iq.FU_type_0::SimdMult                  0      0.00%     56.77% # Type of FU issued
system.cpu0.iq.FU_type_0::SimdMultAcc               0      0.00%     56.77% # Type of FU issued
system.cpu0.iq.FU_type_0::SimdShift                 0      0.00%     56.77% # Type of FU issued
system.cpu0.iq.FU_type_0::SimdShiftAcc              0      0.00%     56.77% # Type of FU issued
system.cpu0.iq.FU_type_0::SimdDiv                   0      0.00%     56.77% # Type of FU issued
system.cpu0.iq.FU_type_0::SimdSqrt                  0      0.00%     56.77% # Type of FU issued
system.cpu0.iq.FU_type_0::SimdFloatAdd              0      0.00%     56.77% # Type of FU issued
system.cpu0.iq.FU_type_0::SimdFloatAlu              0      0.00%     56.77% # Type of FU issued
system.cpu0.iq.FU_type_0::SimdFloatCmp              0      0.00%     56.77% # Type of FU issued
system.cpu0.iq.FU_type_0::SimdFloatCvt              0      0.00%     56.77% # Type of FU issued
system.cpu0.iq.FU_type_0::SimdFloatDiv              0      0.00%     56.77% # Type of FU issued
system.cpu0.iq.FU_type_0::SimdFloatMisc             0      0.00%     56.77% # Type of FU issued
system.cpu0.iq.FU_type_0::SimdFloatMult             0      0.00%     56.77% # Type of FU issued
system.cpu0.iq.FU_type_0::SimdFloatMultAcc            0      0.00%     56.77% # Type of FU issued
system.cpu0.iq.FU_type_0::SimdFloatSqrt             0      0.00%     56.77% # Type of FU issued
system.cpu0.iq.FU_type_0::SimdReduceAdd             0      0.00%     56.77% # Type of FU issued
system.cpu0.iq.FU_type_0::SimdReduceAlu             0      0.00%     56.77% # Type of FU issued
system.cpu0.iq.FU_type_0::SimdReduceCmp             0      0.00%     56.77% # Type of FU issued
system.cpu0.iq.FU_type_0::SimdFloatReduceAdd            0      0.00%     56.77% # Type of FU issued
system.cpu0.iq.FU_type_0::SimdFloatReduceCmp            0      0.00%     56.77% # Type of FU issued
system.cpu0.iq.FU_type_0::SimdAes                   0      0.00%     56.77% # Type of FU issued
system.cpu0.iq.FU_type_0::SimdAesMix                0      0.00%     56.77% # Type of FU issued
system.cpu0.iq.FU_type_0::SimdSha1Hash              0      0.00%     56.77% # Type of FU issued
system.cpu0.iq.FU_type_0::SimdSha1Hash2             0      0.00%     56.77% # Type of FU issued
system.cpu0.iq.FU_type_0::SimdSha256Hash            0      0.00%     56.77% # Type of FU issued
system.cpu0.iq.FU_type_0::SimdSha256Hash2            0      0.00%     56.77% # Type of FU issued
system.cpu0.iq.FU_type_0::SimdShaSigma2             0      0.00%     56.77% # Type of FU issued
system.cpu0.iq.FU_type_0::SimdShaSigma3             0      0.00%     56.77% # Type of FU issued
system.cpu0.iq.FU_type_0::SimdPredAlu               0      0.00%     56.77% # Type of FU issued
system.cpu0.iq.FU_type_0::MemRead           411626795     31.76%     88.53% # Type of FU issued
system.cpu0.iq.FU_type_0::MemWrite          148721004     11.47%    100.00% # Type of FU issued
system.cpu0.iq.FU_type_0::FloatMemRead              8      0.00%    100.00% # Type of FU issued
system.cpu0.iq.FU_type_0::FloatMemWrite            20      0.00%    100.00% # Type of FU issued
system.cpu0.iq.FU_type_0::IprAccess                 0      0.00%    100.00% # Type of FU issued
system.cpu0.iq.FU_type_0::InstPrefetch              0      0.00%    100.00% # Type of FU issued
system.cpu0.iq.FU_type_0::total            1296255576                       # Type of FU issued
system.cpu0.iq.fp_alu_accesses                     52                       # Number of floating point alu accesses
system.cpu0.iq.fp_inst_queue_reads                102                       # Number of floating instruction queue reads
system.cpu0.iq.fp_inst_queue_wakeup_accesses           50                       # Number of floating instruction queue wakeup accesses
system.cpu0.iq.fp_inst_queue_writes                50                       # Number of floating instruction queue writes
system.cpu0.iq.fu_busy_cnt                    1893416                       # FU busy when requested
system.cpu0.iq.fu_busy_rate                  0.001461                       # FU busy rate (busy events/executed inst)
system.cpu0.iq.fu_full::No_OpClass                  0      0.00%      0.00% # attempts to use FU when none available
system.cpu0.iq.fu_full::IntAlu                 353980     18.70%     18.70% # attempts to use FU when none available
system.cpu0.iq.fu_full::IntMult                     0      0.00%     18.70% # attempts to use FU when none available
system.cpu0.iq.fu_full::IntDiv                      0      0.00%     18.70% # attempts to use FU when none available
system.cpu0.iq.fu_full::FloatAdd                    0      0.00%     18.70% # attempts to use FU when none available
system.cpu0.iq.fu_full::FloatCmp                    0      0.00%     18.70% # attempts to use FU when none available
system.cpu0.iq.fu_full::FloatCvt                    0      0.00%     18.70% # attempts to use FU when none available
system.cpu0.iq.fu_full::FloatMult                   0      0.00%     18.70% # attempts to use FU when none available
system.cpu0.iq.fu_full::FloatMultAcc                0      0.00%     18.70% # attempts to use FU when none available
system.cpu0.iq.fu_full::FloatDiv                    0      0.00%     18.70% # attempts to use FU when none available
system.cpu0.iq.fu_full::FloatMisc                   0      0.00%     18.70% # attempts to use FU when none available
system.cpu0.iq.fu_full::FloatSqrt                   0      0.00%     18.70% # attempts to use FU when none available
system.cpu0.iq.fu_full::SimdAdd                     0      0.00%     18.70% # attempts to use FU when none available
system.cpu0.iq.fu_full::SimdAddAcc                  0      0.00%     18.70% # attempts to use FU when none available
system.cpu0.iq.fu_full::SimdAlu                     0      0.00%     18.70% # attempts to use FU when none available
system.cpu0.iq.fu_full::SimdCmp                     0      0.00%     18.70% # attempts to use FU when none available
system.cpu0.iq.fu_full::SimdCvt                     0      0.00%     18.70% # attempts to use FU when none available
system.cpu0.iq.fu_full::SimdMisc                    0      0.00%     18.70% # attempts to use FU when none available
system.cpu0.iq.fu_full::SimdMult                    0      0.00%     18.70% # attempts to use FU when none available
system.cpu0.iq.fu_full::SimdMultAcc                 0      0.00%     18.70% # attempts to use FU when none available
system.cpu0.iq.fu_full::SimdShift                   0      0.00%     18.70% # attempts to use FU when none available
system.cpu0.iq.fu_full::SimdShiftAcc                0      0.00%     18.70% # attempts to use FU when none available
system.cpu0.iq.fu_full::SimdDiv                     0      0.00%     18.70% # attempts to use FU when none available
system.cpu0.iq.fu_full::SimdSqrt                    0      0.00%     18.70% # attempts to use FU when none available
system.cpu0.iq.fu_full::SimdFloatAdd                0      0.00%     18.70% # attempts to use FU when none available
system.cpu0.iq.fu_full::SimdFloatAlu                0      0.00%     18.70% # attempts to use FU when none available
system.cpu0.iq.fu_full::SimdFloatCmp                0      0.00%     18.70% # attempts to use FU when none available
system.cpu0.iq.fu_full::SimdFloatCvt                0      0.00%     18.70% # attempts to use FU when none available
system.cpu0.iq.fu_full::SimdFloatDiv                0      0.00%     18.70% # attempts to use FU when none available
system.cpu0.iq.fu_full::SimdFloatMisc               0      0.00%     18.70% # attempts to use FU when none available
system.cpu0.iq.fu_full::SimdFloatMult               0      0.00%     18.70% # attempts to use FU when none available
system.cpu0.iq.fu_full::SimdFloatMultAcc            0      0.00%     18.70% # attempts to use FU when none available
system.cpu0.iq.fu_full::SimdFloatSqrt               0      0.00%     18.70% # attempts to use FU when none available
system.cpu0.iq.fu_full::SimdReduceAdd               0      0.00%     18.70% # attempts to use FU when none available
system.cpu0.iq.fu_full::SimdReduceAlu               0      0.00%     18.70% # attempts to use FU when none available
system.cpu0.iq.fu_full::SimdReduceCmp               0      0.00%     18.70% # attempts to use FU when none available
system.cpu0.iq.fu_full::SimdFloatReduceAdd            0      0.00%     18.70% # attempts to use FU when none available
system.cpu0.iq.fu_full::SimdFloatReduceCmp            0      0.00%     18.70% # attempts to use FU when none available
system.cpu0.iq.fu_full::SimdAes                     0      0.00%     18.70% # attempts to use FU when none available
system.cpu0.iq.fu_full::SimdAesMix                  0      0.00%     18.70% # attempts to use FU when none available
system.cpu0.iq.fu_full::SimdSha1Hash                0      0.00%     18.70% # attempts to use FU when none available
system.cpu0.iq.fu_full::SimdSha1Hash2               0      0.00%     18.70% # attempts to use FU when none available
system.cpu0.iq.fu_full::SimdSha256Hash              0      0.00%     18.70% # attempts to use FU when none available
system.cpu0.iq.fu_full::SimdSha256Hash2             0      0.00%     18.70% # attempts to use FU when none available
system.cpu0.iq.fu_full::SimdShaSigma2               0      0.00%     18.70% # attempts to use FU when none available
system.cpu0.iq.fu_full::SimdShaSigma3               0      0.00%     18.70% # attempts to use FU when none available
system.cpu0.iq.fu_full::SimdPredAlu                 0      0.00%     18.70% # attempts to use FU when none available
system.cpu0.iq.fu_full::MemRead               1263395     66.73%     85.42% # attempts to use FU when none available
system.cpu0.iq.fu_full::MemWrite               276039     14.58%    100.00% # attempts to use FU when none available
=======
system.cpu0.fetch.Branches                  363046785                       # Number of branches that fetch encountered
system.cpu0.fetch.CacheLines                265278103                       # Number of cache lines fetched
system.cpu0.fetch.Cycles                   1437856885                       # Number of cycles fetch has run and was not squashing or blocked
system.cpu0.fetch.IcacheSquashes              4702320                       # Number of outstanding Icache misses that were squashed
system.cpu0.fetch.IcacheWaitRetryStallCycles           46                       # Number of stall cycles due to full MSHR
system.cpu0.fetch.Insts                    1516155365                       # Number of instructions fetch has processed
system.cpu0.fetch.MiscStallCycles                   8                       # Number of cycles fetch has spent waiting on interrupts, or bad addresses, or out of MSHRs
system.cpu0.fetch.SquashCycles               34215184                       # Number of cycles fetch has spent squashing
system.cpu0.fetch.branchRate                 0.140933                       # Number of branch fetches per cycle
system.cpu0.fetch.icacheStallCycles         961791679                       # Number of cycles fetch is stalled on an Icache miss
system.cpu0.fetch.predictedBranches         205723333                       # Number of branches that fetch has predicted taken
system.cpu0.fetch.rate                       0.588565                       # Number of inst fetches per cycle
system.cpu0.fetch.rateDist::samples        2416756210                       # Number of instructions fetched each cycle (Total)
system.cpu0.fetch.rateDist::mean             0.630553                       # Number of instructions fetched each cycle (Total)
system.cpu0.fetch.rateDist::stdev            0.921751                       # Number of instructions fetched each cycle (Total)
system.cpu0.fetch.rateDist::underflows              0      0.00%      0.00% # Number of instructions fetched each cycle (Total)
system.cpu0.fetch.rateDist::0              1364455822     56.46%     56.46% # Number of instructions fetched each cycle (Total)
system.cpu0.fetch.rateDist::1               767801960     31.77%     88.23% # Number of instructions fetched each cycle (Total)
system.cpu0.fetch.rateDist::2               147033934      6.08%     94.31% # Number of instructions fetched each cycle (Total)
system.cpu0.fetch.rateDist::3               110740443      4.58%     98.89% # Number of instructions fetched each cycle (Total)
system.cpu0.fetch.rateDist::4                13545103      0.56%     99.45% # Number of instructions fetched each cycle (Total)
system.cpu0.fetch.rateDist::5                 7663128      0.32%     99.77% # Number of instructions fetched each cycle (Total)
system.cpu0.fetch.rateDist::6                 1307790      0.05%     99.83% # Number of instructions fetched each cycle (Total)
system.cpu0.fetch.rateDist::7                 4204203      0.17%    100.00% # Number of instructions fetched each cycle (Total)
system.cpu0.fetch.rateDist::8                    3827      0.00%    100.00% # Number of instructions fetched each cycle (Total)
system.cpu0.fetch.rateDist::overflows               0      0.00%    100.00% # Number of instructions fetched each cycle (Total)
system.cpu0.fetch.rateDist::min_value               0                       # Number of instructions fetched each cycle (Total)
system.cpu0.fetch.rateDist::max_value               8                       # Number of instructions fetched each cycle (Total)
system.cpu0.fetch.rateDist::total          2416756210                       # Number of instructions fetched each cycle (Total)
system.cpu0.fp_regfile_reads                       44                       # number of floating regfile reads
system.cpu0.fp_regfile_writes                      23                       # number of floating regfile writes
system.cpu0.idleCycles                      159264427                       # Total number of cycles that the CPU has spent unscheduled due to idling
system.cpu0.iew.branchMispredicts            10878270                       # Number of branch mispredicts detected at execute
system.cpu0.iew.exec_branches               341548890                       # Number of branches executed
system.cpu0.iew.exec_nop                            0                       # number of nop insts executed
system.cpu0.iew.exec_rate                    0.537276                       # Inst execution rate
system.cpu0.iew.exec_refs                   589283282                       # number of memory reference insts executed
system.cpu0.iew.exec_stores                 158609384                       # Number of stores executed
system.cpu0.iew.exec_swp                            0                       # number of swp insts executed
system.cpu0.iew.iewBlockCycles              336137919                       # Number of cycles IEW is blocking
system.cpu0.iew.iewDispLoadInsts            446454100                       # Number of dispatched load instructions
system.cpu0.iew.iewDispNonSpecInsts           4922046                       # Number of dispatched non-speculative instructions
system.cpu0.iew.iewDispSquashedInsts          3135192                       # Number of squashed instructions skipped by dispatch
system.cpu0.iew.iewDispStoreInsts           166857811                       # Number of dispatched store instructions
system.cpu0.iew.iewDispatchedInsts         1439924352                       # Number of instructions dispatched to IQ
system.cpu0.iew.iewExecLoadInsts            430673898                       # Number of load instructions executed
system.cpu0.iew.iewExecSquashedInsts         10137342                       # Number of squashed instructions skipped in execute
system.cpu0.iew.iewExecutedInsts           1384032802                       # Number of executed instructions
system.cpu0.iew.iewIQFullEvents               1874098                       # Number of times the IQ has become full, causing a stall
system.cpu0.iew.iewIdleCycles                       0                       # Number of cycles IEW is idle
system.cpu0.iew.iewLSQFullEvents             14789514                       # Number of times the LSQ has become full, causing a stall
system.cpu0.iew.iewSquashCycles              10771226                       # Number of cycles IEW is squashing
system.cpu0.iew.iewUnblockCycles             18883027                       # Number of cycles IEW is unblocking
system.cpu0.iew.lsq.thread0.blockedLoads            0                       # Number of blocked loads due to partial load-store forwarding
system.cpu0.iew.lsq.thread0.cacheBlocked       206527                       # Number of times an access to memory failed due to the cache being blocked
system.cpu0.iew.lsq.thread0.forwLoads        21412588                       # Number of loads that had data forwarded from stores
system.cpu0.iew.lsq.thread0.ignoredResponses        31546                       # Number of memory responses ignored because the instruction is squashed
system.cpu0.iew.lsq.thread0.invAddrLoads            0                       # Number of loads ignored due to an invalid address
system.cpu0.iew.lsq.thread0.invAddrSwpfs            0                       # Number of software prefetches ignored due to an invalid address
system.cpu0.iew.lsq.thread0.memOrderViolation        14217                       # Number of memory ordering violations
system.cpu0.iew.lsq.thread0.rescheduledLoads      4754087                       # Number of loads that were rescheduled
system.cpu0.iew.lsq.thread0.squashedLoads     41282568                       # Number of loads squashed
system.cpu0.iew.lsq.thread0.squashedStores     13573139                       # Number of stores squashed
system.cpu0.iew.memOrderViolationEvents         14217                       # Number of memory order violations
system.cpu0.iew.predictedNotTakenIncorrect      1377958                       # Number of branches that were predicted not taken incorrectly
system.cpu0.iew.predictedTakenIncorrect       9500312                       # Number of branches that were predicted taken incorrectly
system.cpu0.iew.wb_consumers                586104983                       # num instructions consuming a value
system.cpu0.iew.wb_count                   1372433107                       # cumulative count of insts written-back
system.cpu0.iew.wb_fanout                    0.897598                       # average fanout of values written-back
system.cpu0.iew.wb_producers                526086680                       # num instructions producing a value
system.cpu0.iew.wb_rate                      0.532773                       # insts written-back per cycle
system.cpu0.iew.wb_sent                    1372539307                       # cumulative count of insts sent to commit
system.cpu0.int_regfile_reads              1701168174                       # number of integer regfile reads
system.cpu0.int_regfile_writes              882492502                       # number of integer regfile writes
system.cpu0.ipc                              0.511080                       # IPC: Instructions Per Cycle
system.cpu0.ipc_total                        0.511080                       # IPC: Total IPC of All Threads
system.cpu0.iq.FU_type_0::No_OpClass          4205588      0.30%      0.30% # Type of FU issued
system.cpu0.iq.FU_type_0::IntAlu            782265127     56.11%     56.41% # Type of FU issued
system.cpu0.iq.FU_type_0::IntMult            11834250      0.85%     57.26% # Type of FU issued
system.cpu0.iq.FU_type_0::IntDiv              2100431      0.15%     57.41% # Type of FU issued
system.cpu0.iq.FU_type_0::FloatAdd                  0      0.00%     57.41% # Type of FU issued
system.cpu0.iq.FU_type_0::FloatCmp                  4      0.00%     57.41% # Type of FU issued
system.cpu0.iq.FU_type_0::FloatCvt                 12      0.00%     57.41% # Type of FU issued
system.cpu0.iq.FU_type_0::FloatMult                 0      0.00%     57.41% # Type of FU issued
system.cpu0.iq.FU_type_0::FloatMultAcc              0      0.00%     57.41% # Type of FU issued
system.cpu0.iq.FU_type_0::FloatDiv                  2      0.00%     57.41% # Type of FU issued
system.cpu0.iq.FU_type_0::FloatMisc                 4      0.00%     57.41% # Type of FU issued
system.cpu0.iq.FU_type_0::FloatSqrt                 0      0.00%     57.41% # Type of FU issued
system.cpu0.iq.FU_type_0::SimdAdd                   0      0.00%     57.41% # Type of FU issued
system.cpu0.iq.FU_type_0::SimdAddAcc                0      0.00%     57.41% # Type of FU issued
system.cpu0.iq.FU_type_0::SimdAlu                   0      0.00%     57.41% # Type of FU issued
system.cpu0.iq.FU_type_0::SimdCmp                   0      0.00%     57.41% # Type of FU issued
system.cpu0.iq.FU_type_0::SimdCvt                   0      0.00%     57.41% # Type of FU issued
system.cpu0.iq.FU_type_0::SimdMisc                  0      0.00%     57.41% # Type of FU issued
system.cpu0.iq.FU_type_0::SimdMult                  0      0.00%     57.41% # Type of FU issued
system.cpu0.iq.FU_type_0::SimdMultAcc               0      0.00%     57.41% # Type of FU issued
system.cpu0.iq.FU_type_0::SimdShift                 0      0.00%     57.41% # Type of FU issued
system.cpu0.iq.FU_type_0::SimdShiftAcc              0      0.00%     57.41% # Type of FU issued
system.cpu0.iq.FU_type_0::SimdDiv                   0      0.00%     57.41% # Type of FU issued
system.cpu0.iq.FU_type_0::SimdSqrt                  0      0.00%     57.41% # Type of FU issued
system.cpu0.iq.FU_type_0::SimdFloatAdd              0      0.00%     57.41% # Type of FU issued
system.cpu0.iq.FU_type_0::SimdFloatAlu              0      0.00%     57.41% # Type of FU issued
system.cpu0.iq.FU_type_0::SimdFloatCmp              0      0.00%     57.41% # Type of FU issued
system.cpu0.iq.FU_type_0::SimdFloatCvt              0      0.00%     57.41% # Type of FU issued
system.cpu0.iq.FU_type_0::SimdFloatDiv              0      0.00%     57.41% # Type of FU issued
system.cpu0.iq.FU_type_0::SimdFloatMisc             0      0.00%     57.41% # Type of FU issued
system.cpu0.iq.FU_type_0::SimdFloatMult             0      0.00%     57.41% # Type of FU issued
system.cpu0.iq.FU_type_0::SimdFloatMultAcc            0      0.00%     57.41% # Type of FU issued
system.cpu0.iq.FU_type_0::SimdFloatSqrt             0      0.00%     57.41% # Type of FU issued
system.cpu0.iq.FU_type_0::SimdReduceAdd             0      0.00%     57.41% # Type of FU issued
system.cpu0.iq.FU_type_0::SimdReduceAlu             0      0.00%     57.41% # Type of FU issued
system.cpu0.iq.FU_type_0::SimdReduceCmp             0      0.00%     57.41% # Type of FU issued
system.cpu0.iq.FU_type_0::SimdFloatReduceAdd            0      0.00%     57.41% # Type of FU issued
system.cpu0.iq.FU_type_0::SimdFloatReduceCmp            0      0.00%     57.41% # Type of FU issued
system.cpu0.iq.FU_type_0::SimdAes                   0      0.00%     57.41% # Type of FU issued
system.cpu0.iq.FU_type_0::SimdAesMix                0      0.00%     57.41% # Type of FU issued
system.cpu0.iq.FU_type_0::SimdSha1Hash              0      0.00%     57.41% # Type of FU issued
system.cpu0.iq.FU_type_0::SimdSha1Hash2             0      0.00%     57.41% # Type of FU issued
system.cpu0.iq.FU_type_0::SimdSha256Hash            0      0.00%     57.41% # Type of FU issued
system.cpu0.iq.FU_type_0::SimdSha256Hash2            0      0.00%     57.41% # Type of FU issued
system.cpu0.iq.FU_type_0::SimdShaSigma2             0      0.00%     57.41% # Type of FU issued
system.cpu0.iq.FU_type_0::SimdShaSigma3             0      0.00%     57.41% # Type of FU issued
system.cpu0.iq.FU_type_0::SimdPredAlu               0      0.00%     57.41% # Type of FU issued
system.cpu0.iq.FU_type_0::MemRead           435452745     31.23%     88.64% # Type of FU issued
system.cpu0.iq.FU_type_0::MemWrite          158311953     11.36%    100.00% # Type of FU issued
system.cpu0.iq.FU_type_0::FloatMemRead              9      0.00%    100.00% # Type of FU issued
system.cpu0.iq.FU_type_0::FloatMemWrite            20      0.00%    100.00% # Type of FU issued
system.cpu0.iq.FU_type_0::IprAccess                 0      0.00%    100.00% # Type of FU issued
system.cpu0.iq.FU_type_0::InstPrefetch              0      0.00%    100.00% # Type of FU issued
system.cpu0.iq.FU_type_0::total            1394170145                       # Type of FU issued
system.cpu0.iq.fp_alu_accesses                     53                       # Number of floating point alu accesses
system.cpu0.iq.fp_inst_queue_reads                104                       # Number of floating instruction queue reads
system.cpu0.iq.fp_inst_queue_wakeup_accesses           51                       # Number of floating instruction queue wakeup accesses
system.cpu0.iq.fp_inst_queue_writes                52                       # Number of floating instruction queue writes
system.cpu0.iq.fu_busy_cnt                    3285622                       # FU busy when requested
system.cpu0.iq.fu_busy_rate                  0.002357                       # FU busy rate (busy events/executed inst)
system.cpu0.iq.fu_full::No_OpClass                  0      0.00%      0.00% # attempts to use FU when none available
system.cpu0.iq.fu_full::IntAlu                 643096     19.57%     19.57% # attempts to use FU when none available
system.cpu0.iq.fu_full::IntMult                     0      0.00%     19.57% # attempts to use FU when none available
system.cpu0.iq.fu_full::IntDiv                      0      0.00%     19.57% # attempts to use FU when none available
system.cpu0.iq.fu_full::FloatAdd                    0      0.00%     19.57% # attempts to use FU when none available
system.cpu0.iq.fu_full::FloatCmp                    0      0.00%     19.57% # attempts to use FU when none available
system.cpu0.iq.fu_full::FloatCvt                    0      0.00%     19.57% # attempts to use FU when none available
system.cpu0.iq.fu_full::FloatMult                   0      0.00%     19.57% # attempts to use FU when none available
system.cpu0.iq.fu_full::FloatMultAcc                0      0.00%     19.57% # attempts to use FU when none available
system.cpu0.iq.fu_full::FloatDiv                    0      0.00%     19.57% # attempts to use FU when none available
system.cpu0.iq.fu_full::FloatMisc                   0      0.00%     19.57% # attempts to use FU when none available
system.cpu0.iq.fu_full::FloatSqrt                   0      0.00%     19.57% # attempts to use FU when none available
system.cpu0.iq.fu_full::SimdAdd                     0      0.00%     19.57% # attempts to use FU when none available
system.cpu0.iq.fu_full::SimdAddAcc                  0      0.00%     19.57% # attempts to use FU when none available
system.cpu0.iq.fu_full::SimdAlu                     0      0.00%     19.57% # attempts to use FU when none available
system.cpu0.iq.fu_full::SimdCmp                     0      0.00%     19.57% # attempts to use FU when none available
system.cpu0.iq.fu_full::SimdCvt                     0      0.00%     19.57% # attempts to use FU when none available
system.cpu0.iq.fu_full::SimdMisc                    0      0.00%     19.57% # attempts to use FU when none available
system.cpu0.iq.fu_full::SimdMult                    0      0.00%     19.57% # attempts to use FU when none available
system.cpu0.iq.fu_full::SimdMultAcc                 0      0.00%     19.57% # attempts to use FU when none available
system.cpu0.iq.fu_full::SimdShift                   0      0.00%     19.57% # attempts to use FU when none available
system.cpu0.iq.fu_full::SimdShiftAcc                0      0.00%     19.57% # attempts to use FU when none available
system.cpu0.iq.fu_full::SimdDiv                     0      0.00%     19.57% # attempts to use FU when none available
system.cpu0.iq.fu_full::SimdSqrt                    0      0.00%     19.57% # attempts to use FU when none available
system.cpu0.iq.fu_full::SimdFloatAdd                0      0.00%     19.57% # attempts to use FU when none available
system.cpu0.iq.fu_full::SimdFloatAlu                0      0.00%     19.57% # attempts to use FU when none available
system.cpu0.iq.fu_full::SimdFloatCmp                0      0.00%     19.57% # attempts to use FU when none available
system.cpu0.iq.fu_full::SimdFloatCvt                0      0.00%     19.57% # attempts to use FU when none available
system.cpu0.iq.fu_full::SimdFloatDiv                0      0.00%     19.57% # attempts to use FU when none available
system.cpu0.iq.fu_full::SimdFloatMisc               0      0.00%     19.57% # attempts to use FU when none available
system.cpu0.iq.fu_full::SimdFloatMult               0      0.00%     19.57% # attempts to use FU when none available
system.cpu0.iq.fu_full::SimdFloatMultAcc            0      0.00%     19.57% # attempts to use FU when none available
system.cpu0.iq.fu_full::SimdFloatSqrt               0      0.00%     19.57% # attempts to use FU when none available
system.cpu0.iq.fu_full::SimdReduceAdd               0      0.00%     19.57% # attempts to use FU when none available
system.cpu0.iq.fu_full::SimdReduceAlu               0      0.00%     19.57% # attempts to use FU when none available
system.cpu0.iq.fu_full::SimdReduceCmp               0      0.00%     19.57% # attempts to use FU when none available
system.cpu0.iq.fu_full::SimdFloatReduceAdd            0      0.00%     19.57% # attempts to use FU when none available
system.cpu0.iq.fu_full::SimdFloatReduceCmp            0      0.00%     19.57% # attempts to use FU when none available
system.cpu0.iq.fu_full::SimdAes                     0      0.00%     19.57% # attempts to use FU when none available
system.cpu0.iq.fu_full::SimdAesMix                  0      0.00%     19.57% # attempts to use FU when none available
system.cpu0.iq.fu_full::SimdSha1Hash                0      0.00%     19.57% # attempts to use FU when none available
system.cpu0.iq.fu_full::SimdSha1Hash2               0      0.00%     19.57% # attempts to use FU when none available
system.cpu0.iq.fu_full::SimdSha256Hash              0      0.00%     19.57% # attempts to use FU when none available
system.cpu0.iq.fu_full::SimdSha256Hash2             0      0.00%     19.57% # attempts to use FU when none available
system.cpu0.iq.fu_full::SimdShaSigma2               0      0.00%     19.57% # attempts to use FU when none available
system.cpu0.iq.fu_full::SimdShaSigma3               0      0.00%     19.57% # attempts to use FU when none available
system.cpu0.iq.fu_full::SimdPredAlu                 0      0.00%     19.57% # attempts to use FU when none available
system.cpu0.iq.fu_full::MemRead               2173315     66.15%     85.72% # attempts to use FU when none available
system.cpu0.iq.fu_full::MemWrite               469209     14.28%    100.00% # attempts to use FU when none available
>>>>>>> 6be7a0502e78ebf80a09b838e3e9c0d652379c93
system.cpu0.iq.fu_full::FloatMemRead                0      0.00%    100.00% # attempts to use FU when none available
system.cpu0.iq.fu_full::FloatMemWrite               2      0.00%    100.00% # attempts to use FU when none available
system.cpu0.iq.fu_full::IprAccess                   0      0.00%    100.00% # attempts to use FU when none available
system.cpu0.iq.fu_full::InstPrefetch                0      0.00%    100.00% # attempts to use FU when none available
<<<<<<< HEAD
system.cpu0.iq.int_alu_accesses            1296042794                       # Number of integer alu accesses
system.cpu0.iq.int_inst_queue_reads        4792208091                       # Number of integer instruction queue reads
system.cpu0.iq.int_inst_queue_wakeup_accesses   1280163536                       # Number of integer instruction queue wakeup accesses
system.cpu0.iq.int_inst_queue_writes       1389626313                       # Number of integer instruction queue writes
system.cpu0.iq.iqInstsAdded                1313353366                       # Number of instructions added to the IQ (excludes non-spec)
system.cpu0.iq.iqInstsIssued               1296255576                       # Number of instructions issued
system.cpu0.iq.iqNonSpecInstsAdded            7235564                       # Number of non-speculative instructions added to the IQ
system.cpu0.iq.iqSquashedInstsExamined       69025820                       # Number of squashed instructions iterated over during squash; mainly for profiling
system.cpu0.iq.iqSquashedInstsIssued           130301                       # Number of squashed instructions issued
system.cpu0.iq.iqSquashedNonSpecRemoved       4074917                       # Number of squashed non-spec instructions that were removed
system.cpu0.iq.iqSquashedOperandsExamined     41586976                       # Number of squashed operands that are examined and possibly removed from graph
system.cpu0.iq.issued_per_cycle::samples   2197673325                       # Number of insts issued each cycle
system.cpu0.iq.issued_per_cycle::mean        0.589831                       # Number of insts issued each cycle
system.cpu0.iq.issued_per_cycle::stdev       0.799777                       # Number of insts issued each cycle
system.cpu0.iq.issued_per_cycle::underflows            0      0.00%      0.00% # Number of insts issued each cycle
system.cpu0.iq.issued_per_cycle::0         1242201192     56.52%     56.52% # Number of insts issued each cycle
system.cpu0.iq.issued_per_cycle::1          686024249     31.22%     87.74% # Number of insts issued each cycle
system.cpu0.iq.issued_per_cycle::2          214536706      9.76%     97.50% # Number of insts issued each cycle
system.cpu0.iq.issued_per_cycle::3           43710603      1.99%     99.49% # Number of insts issued each cycle
system.cpu0.iq.issued_per_cycle::4            8296205      0.38%     99.87% # Number of insts issued each cycle
system.cpu0.iq.issued_per_cycle::5            1352176      0.06%     99.93% # Number of insts issued each cycle
system.cpu0.iq.issued_per_cycle::6             952763      0.04%     99.97% # Number of insts issued each cycle
system.cpu0.iq.issued_per_cycle::7             431620      0.02%     99.99% # Number of insts issued each cycle
system.cpu0.iq.issued_per_cycle::8             167811      0.01%    100.00% # Number of insts issued each cycle
system.cpu0.iq.issued_per_cycle::overflows            0      0.00%    100.00% # Number of insts issued each cycle
system.cpu0.iq.issued_per_cycle::min_value            0                       # Number of insts issued each cycle
system.cpu0.iq.issued_per_cycle::max_value            8                       # Number of insts issued each cycle
system.cpu0.iq.issued_per_cycle::total     2197673325                       # Number of insts issued each cycle
system.cpu0.iq.rate                          0.552315                       # Inst issue rate
=======
system.cpu0.iq.int_alu_accesses            1393250126                       # Number of integer alu accesses
system.cpu0.iq.int_inst_queue_reads        5208618355                       # Number of integer instruction queue reads
system.cpu0.iq.int_inst_queue_wakeup_accesses   1372433056                       # Number of integer instruction queue wakeup accesses
system.cpu0.iq.int_inst_queue_writes       1561205899                       # Number of integer instruction queue writes
system.cpu0.iq.iqInstsAdded                1425163079                       # Number of instructions added to the IQ (excludes non-spec)
system.cpu0.iq.iqInstsIssued               1394170145                       # Number of instructions issued
system.cpu0.iq.iqNonSpecInstsAdded           14761273                       # Number of non-speculative instructions added to the IQ
system.cpu0.iq.iqSquashedInstsExamined      121268197                       # Number of squashed instructions iterated over during squash; mainly for profiling
system.cpu0.iq.iqSquashedInstsIssued           236338                       # Number of squashed instructions issued
system.cpu0.iq.iqSquashedNonSpecRemoved       8451560                       # Number of squashed non-spec instructions that were removed
system.cpu0.iq.iqSquashedOperandsExamined     67709833                       # Number of squashed operands that are examined and possibly removed from graph
system.cpu0.iq.issued_per_cycle::samples   2416756210                       # Number of insts issued each cycle
system.cpu0.iq.issued_per_cycle::mean        0.576877                       # Number of insts issued each cycle
system.cpu0.iq.issued_per_cycle::stdev       0.811427                       # Number of insts issued each cycle
system.cpu0.iq.issued_per_cycle::underflows            0      0.00%      0.00% # Number of insts issued each cycle
system.cpu0.iq.issued_per_cycle::0         1401600874     58.00%     58.00% # Number of insts issued each cycle
system.cpu0.iq.issued_per_cycle::1          722388436     29.89%     87.89% # Number of insts issued each cycle
system.cpu0.iq.issued_per_cycle::2          229891935      9.51%     97.40% # Number of insts issued each cycle
system.cpu0.iq.issued_per_cycle::3           46858317      1.94%     99.34% # Number of insts issued each cycle
system.cpu0.iq.issued_per_cycle::4           11973117      0.50%     99.83% # Number of insts issued each cycle
system.cpu0.iq.issued_per_cycle::5            1803451      0.07%     99.91% # Number of insts issued each cycle
system.cpu0.iq.issued_per_cycle::6            1450701      0.06%     99.97% # Number of insts issued each cycle
system.cpu0.iq.issued_per_cycle::7             506073      0.02%     99.99% # Number of insts issued each cycle
system.cpu0.iq.issued_per_cycle::8             283306      0.01%    100.00% # Number of insts issued each cycle
system.cpu0.iq.issued_per_cycle::overflows            0      0.00%    100.00% # Number of insts issued each cycle
system.cpu0.iq.issued_per_cycle::min_value            0                       # Number of insts issued each cycle
system.cpu0.iq.issued_per_cycle::max_value            8                       # Number of insts issued each cycle
system.cpu0.iq.issued_per_cycle::total     2416756210                       # Number of insts issued each cycle
system.cpu0.iq.rate                          0.541211                       # Inst issue rate
>>>>>>> 6be7a0502e78ebf80a09b838e3e9c0d652379c93
system.cpu0.iq.vec_alu_accesses                     0                       # Number of vector alu accesses
system.cpu0.iq.vec_inst_queue_reads                 0                       # Number of vector instruction queue reads
system.cpu0.iq.vec_inst_queue_wakeup_accesses            0                       # Number of vector instruction queue wakeup accesses
system.cpu0.iq.vec_inst_queue_writes                0                       # Number of vector instruction queue writes
system.cpu0.itb.accesses                            0                       # DTB accesses
system.cpu0.itb.hits                                0                       # DTB hits
system.cpu0.itb.misses                              0                       # DTB misses
system.cpu0.itb.read_accesses                       0                       # DTB read accesses
system.cpu0.itb.read_hits                           0                       # DTB read hits
system.cpu0.itb.read_misses                         0                       # DTB read misses
system.cpu0.itb.write_accesses                      0                       # DTB write accesses
system.cpu0.itb.write_hits                          0                       # DTB write hits
system.cpu0.itb.write_misses                        0                       # DTB write misses
<<<<<<< HEAD
system.cpu0.memDep0.conflictingLoads         21026327                       # Number of conflicting loads.
[...]
system.cpu1.dcache.WriteReq_mshr_miss_rate::total     0.037905                       # mshr miss rate for WriteReq accesses
system.cpu1.dcache.WriteReq_avg_mshr_miss_latency::.cpu1.data 99454.528627                       # average WriteReq mshr miss latency
system.cpu1.dcache.WriteReq_avg_mshr_miss_latency::total 99454.528627                       # average WriteReq mshr miss latency
system.cpu1.dcache.LoadLockedReq_hits::.cpu1.data      2175418                       # number of LoadLockedReq hits
system.cpu1.dcache.LoadLockedReq_hits::total      2175418                       # number of LoadLockedReq hits
system.cpu1.dcache.LoadLockedReq_misses::.cpu1.data         7776                       # number of LoadLockedReq misses
system.cpu1.dcache.LoadLockedReq_misses::total         7776                       # number of LoadLockedReq misses
system.cpu1.dcache.LoadLockedReq_miss_latency::.cpu1.data    157052500                       # number of LoadLockedReq miss cycles
system.cpu1.dcache.LoadLockedReq_miss_latency::total    157052500                       # number of LoadLockedReq miss cycles
system.cpu1.dcache.LoadLockedReq_accesses::.cpu1.data      2183194                       # number of LoadLockedReq accesses(hits+misses)
system.cpu1.dcache.LoadLockedReq_accesses::total      2183194                       # number of LoadLockedReq accesses(hits+misses)
system.cpu1.dcache.LoadLockedReq_miss_rate::.cpu1.data     0.003562                       # miss rate for LoadLockedReq accesses
system.cpu1.dcache.LoadLockedReq_miss_rate::total     0.003562                       # miss rate for LoadLockedReq accesses
system.cpu1.dcache.LoadLockedReq_avg_miss_latency::.cpu1.data 20197.080761                       # average LoadLockedReq miss latency
system.cpu1.dcache.LoadLockedReq_avg_miss_latency::total 20197.080761                       # average LoadLockedReq miss latency
system.cpu1.dcache.LoadLockedReq_mshr_hits::.cpu1.data         1162                       # number of LoadLockedReq MSHR hits
system.cpu1.dcache.LoadLockedReq_mshr_hits::total         1162                       # number of LoadLockedReq MSHR hits
system.cpu1.dcache.LoadLockedReq_mshr_misses::.cpu1.data         6614                       # number of LoadLockedReq MSHR misses
system.cpu1.dcache.LoadLockedReq_mshr_misses::total         6614                       # number of LoadLockedReq MSHR misses
system.cpu1.dcache.LoadLockedReq_mshr_miss_latency::.cpu1.data    131016500                       # number of LoadLockedReq MSHR miss cycles
system.cpu1.dcache.LoadLockedReq_mshr_miss_latency::total    131016500                       # number of LoadLockedReq MSHR miss cycles
system.cpu1.dcache.LoadLockedReq_mshr_miss_rate::.cpu1.data     0.003030                       # mshr miss rate for LoadLockedReq accesses
system.cpu1.dcache.LoadLockedReq_mshr_miss_rate::total     0.003030                       # mshr miss rate for LoadLockedReq accesses
system.cpu1.dcache.LoadLockedReq_avg_mshr_miss_latency::.cpu1.data 19808.965830                       # average LoadLockedReq mshr miss latency
system.cpu1.dcache.LoadLockedReq_avg_mshr_miss_latency::total 19808.965830                       # average LoadLockedReq mshr miss latency
system.cpu1.dcache.StoreCondReq_hits::.cpu1.data      2181834                       # number of StoreCondReq hits
system.cpu1.dcache.StoreCondReq_hits::total      2181834                       # number of StoreCondReq hits
system.cpu1.dcache.StoreCondReq_misses::.cpu1.data         1062                       # number of StoreCondReq misses
system.cpu1.dcache.StoreCondReq_misses::total         1062                       # number of StoreCondReq misses
system.cpu1.dcache.StoreCondReq_miss_latency::.cpu1.data     15524000                       # number of StoreCondReq miss cycles
system.cpu1.dcache.StoreCondReq_miss_latency::total     15524000                       # number of StoreCondReq miss cycles
system.cpu1.dcache.StoreCondReq_accesses::.cpu1.data      2182896                       # number of StoreCondReq accesses(hits+misses)
system.cpu1.dcache.StoreCondReq_accesses::total      2182896                       # number of StoreCondReq accesses(hits+misses)
system.cpu1.dcache.StoreCondReq_miss_rate::.cpu1.data     0.000487                       # miss rate for StoreCondReq accesses
system.cpu1.dcache.StoreCondReq_miss_rate::total     0.000487                       # miss rate for StoreCondReq accesses
system.cpu1.dcache.StoreCondReq_avg_miss_latency::.cpu1.data 14617.702448                       # average StoreCondReq miss latency
system.cpu1.dcache.StoreCondReq_avg_miss_latency::total 14617.702448                       # average StoreCondReq miss latency
system.cpu1.dcache.StoreCondReq_mshr_misses::.cpu1.data         1047                       # number of StoreCondReq MSHR misses
system.cpu1.dcache.StoreCondReq_mshr_misses::total         1047                       # number of StoreCondReq MSHR misses
system.cpu1.dcache.StoreCondReq_mshr_miss_latency::.cpu1.data     14481000                       # number of StoreCondReq MSHR miss cycles
system.cpu1.dcache.StoreCondReq_mshr_miss_latency::total     14481000                       # number of StoreCondReq MSHR miss cycles
system.cpu1.dcache.StoreCondReq_mshr_miss_rate::.cpu1.data     0.000480                       # mshr miss rate for StoreCondReq accesses
system.cpu1.dcache.StoreCondReq_mshr_miss_rate::total     0.000480                       # mshr miss rate for StoreCondReq accesses
system.cpu1.dcache.StoreCondReq_avg_mshr_miss_latency::.cpu1.data 13830.945559                       # average StoreCondReq mshr miss latency
system.cpu1.dcache.StoreCondReq_avg_mshr_miss_latency::total 13830.945559                       # average StoreCondReq mshr miss latency
system.cpu1.dcache.StoreCondFailReq_miss_latency::.cpu1.data        52500                       # number of StoreCondFailReq miss cycles
system.cpu1.dcache.StoreCondFailReq_miss_latency::total        52500                       # number of StoreCondFailReq miss cycles
system.cpu1.dcache.StoreCondFailReq_avg_miss_latency::.cpu1.data          inf                       # average StoreCondFailReq miss latency
system.cpu1.dcache.StoreCondFailReq_avg_miss_latency::total          inf                       # average StoreCondFailReq miss latency
system.cpu1.dcache.StoreCondFailReq_mshr_miss_latency::.cpu1.data        48500                       # number of StoreCondFailReq MSHR miss cycles
system.cpu1.dcache.StoreCondFailReq_mshr_miss_latency::total        48500                       # number of StoreCondFailReq MSHR miss cycles
system.cpu1.dcache.StoreCondFailReq_avg_mshr_miss_latency::.cpu1.data          inf                       # average StoreCondFailReq mshr miss latency
system.cpu1.dcache.StoreCondFailReq_avg_mshr_miss_latency::total          inf                       # average StoreCondFailReq mshr miss latency
system.cpu1.dcache.SwapReq_hits::.cpu1.data          479                       # number of SwapReq hits
system.cpu1.dcache.SwapReq_hits::total            479                       # number of SwapReq hits
system.cpu1.dcache.SwapReq_misses::.cpu1.data         1894                       # number of SwapReq misses
system.cpu1.dcache.SwapReq_misses::total         1894                       # number of SwapReq misses
system.cpu1.dcache.SwapReq_miss_latency::.cpu1.data    143574999                       # number of SwapReq miss cycles
system.cpu1.dcache.SwapReq_miss_latency::total    143574999                       # number of SwapReq miss cycles
system.cpu1.dcache.SwapReq_accesses::.cpu1.data         2373                       # number of SwapReq accesses(hits+misses)
system.cpu1.dcache.SwapReq_accesses::total         2373                       # number of SwapReq accesses(hits+misses)
system.cpu1.dcache.SwapReq_miss_rate::.cpu1.data     0.798146                       # miss rate for SwapReq accesses
system.cpu1.dcache.SwapReq_miss_rate::total     0.798146                       # miss rate for SwapReq accesses
system.cpu1.dcache.SwapReq_avg_miss_latency::.cpu1.data 75805.173706                       # average SwapReq miss latency
system.cpu1.dcache.SwapReq_avg_miss_latency::total 75805.173706                       # average SwapReq miss latency
system.cpu1.dcache.SwapReq_mshr_misses::.cpu1.data         1894                       # number of SwapReq MSHR misses
system.cpu1.dcache.SwapReq_mshr_misses::total         1894                       # number of SwapReq MSHR misses
system.cpu1.dcache.SwapReq_mshr_miss_latency::.cpu1.data    141680999                       # number of SwapReq MSHR miss cycles
system.cpu1.dcache.SwapReq_mshr_miss_latency::total    141680999                       # number of SwapReq MSHR miss cycles
system.cpu1.dcache.SwapReq_mshr_miss_rate::.cpu1.data     0.798146                       # mshr miss rate for SwapReq accesses
system.cpu1.dcache.SwapReq_mshr_miss_rate::total     0.798146                       # mshr miss rate for SwapReq accesses
system.cpu1.dcache.SwapReq_avg_mshr_miss_latency::.cpu1.data 74805.173706                       # average SwapReq mshr miss latency
system.cpu1.dcache.SwapReq_avg_mshr_miss_latency::total 74805.173706                       # average SwapReq mshr miss latency
system.cpu1.dcache.tags.pwrStateResidencyTicks::UNDEFINED 1093031548000                       # Cumulative time (in ticks) in various power states
system.cpu1.dcache.tags.tagsinuse           31.984247                       # Cycle average of tags in use
system.cpu1.dcache.tags.total_refs          167457400                       # Total number of references to valid blocks.
system.cpu1.dcache.tags.sampled_refs         13137152                       # Sample count of references to valid blocks.
system.cpu1.dcache.tags.avg_refs            12.746857                       # Average number of references to valid blocks.
system.cpu1.dcache.tags.warmup_cycle                0                       # Cycle when the warmup percentage was hit.
system.cpu1.dcache.tags.occ_blocks::.cpu1.data    31.984247                       # Average occupied blocks per requestor
system.cpu1.dcache.tags.occ_percent::.cpu1.data     0.999508                       # Average percentage of cache occupancy
system.cpu1.dcache.tags.occ_percent::total     0.999508                       # Average percentage of cache occupancy
system.cpu1.dcache.tags.occ_task_id_blocks::1024           30                       # Occupied blocks per task id
system.cpu1.dcache.tags.age_task_id_blocks_1024::2           30                       # Occupied blocks per task id
system.cpu1.dcache.tags.occ_task_id_percent::1024     0.937500                       # Percentage of cache occupancy per task id
system.cpu1.dcache.tags.tag_accesses        386087800                       # Number of tag accesses
system.cpu1.dcache.tags.data_accesses       386087800                       # Number of data accesses
system.cpu_clk_domain.clock                       500                       # Clock period in ticks
system.tol2bus.pwrStateResidencyTicks::UNDEFINED 1093031548000                       # Cumulative time (in ticks) in various power states
system.tol2bus.trans_dist::ReadResp          30857260                       # Transaction distribution
system.tol2bus.trans_dist::WritebackDirty     10625447                       # Transaction distribution
system.tol2bus.trans_dist::WritebackClean     25840564                       # Transaction distribution
system.tol2bus.trans_dist::CleanEvict        50167039                       # Transaction distribution
system.tol2bus.trans_dist::HardPFReq         14814664                       # Transaction distribution
system.tol2bus.trans_dist::HardPFResp               3                       # Transaction distribution
system.tol2bus.trans_dist::UpgradeReq            9478                       # Transaction distribution
system.tol2bus.trans_dist::SCUpgradeReq          2159                       # Transaction distribution
system.tol2bus.trans_dist::UpgradeResp          11637                       # Transaction distribution
system.tol2bus.trans_dist::SCUpgradeFailReq            8                       # Transaction distribution
system.tol2bus.trans_dist::UpgradeFailResp            8                       # Transaction distribution
system.tol2bus.trans_dist::ReadExReq           496253                       # Transaction distribution
system.tol2bus.trans_dist::ReadExResp          496253                       # Transaction distribution
system.tol2bus.trans_dist::ReadCleanReq        413320                       # Transaction distribution
system.tol2bus.trans_dist::ReadSharedReq     30443941                       # Transaction distribution
system.tol2bus.trans_dist::InvalidateReq          236                       # Transaction distribution
system.tol2bus.trans_dist::InvalidateResp          236                       # Transaction distribution
system.tol2bus.pkt_count_system.cpu0.icache.mem_side::system.l2.cpu_side      1222987                       # Packet count per connected master and slave (bytes)
system.tol2bus.pkt_count_system.cpu0.dcache.mem_side::system.l2.cpu_side     53405125                       # Packet count per connected master and slave (bytes)
system.tol2bus.pkt_count_system.cpu1.icache.mem_side::system.l2.cpu_side        16971                       # Packet count per connected master and slave (bytes)
system.tol2bus.pkt_count_system.cpu1.dcache.mem_side::system.l2.cpu_side     39411135                       # Packet count per connected master and slave (bytes)
system.tol2bus.pkt_count::total              94056218                       # Packet count per connected master and slave (bytes)
system.tol2bus.pkt_size_system.cpu0.icache.mem_side::system.l2.cpu_side     52180736                       # Cumulative packet size per connected master and slave (bytes)
system.tol2bus.pkt_size_system.cpu0.dcache.mem_side::system.l2.cpu_side   2277894720                       # Cumulative packet size per connected master and slave (bytes)
system.tol2bus.pkt_size_system.cpu1.icache.mem_side::system.l2.cpu_side       724096                       # Cumulative packet size per connected master and slave (bytes)
system.tol2bus.pkt_size_system.cpu1.dcache.mem_side::system.l2.cpu_side   1680766656                       # Cumulative packet size per connected master and slave (bytes)
system.tol2bus.pkt_size::total             4011566208                       # Cumulative packet size per connected master and slave (bytes)
system.tol2bus.snoops                        70122291                       # Total snoops (count)
system.tol2bus.snoopTraffic                 328884224                       # Total snoop traffic (bytes)
system.tol2bus.snoop_fanout::samples        101470924                       # Request fanout histogram
system.tol2bus.snoop_fanout::mean            0.227751                       # Request fanout histogram
system.tol2bus.snoop_fanout::stdev           0.430114                       # Request fanout histogram
system.tol2bus.snoop_fanout::underflows             0      0.00%      0.00% # Request fanout histogram
system.tol2bus.snoop_fanout::0               78823447     77.68%     77.68% # Request fanout histogram
system.tol2bus.snoop_fanout::1               22184876     21.86%     99.54% # Request fanout histogram
system.tol2bus.snoop_fanout::2                 462601      0.46%    100.00% # Request fanout histogram
system.tol2bus.snoop_fanout::3                      0      0.00%    100.00% # Request fanout histogram
system.tol2bus.snoop_fanout::4                      0      0.00%    100.00% # Request fanout histogram
>>>>>>> 6be7a0502e78ebf80a09b838e3e9c0d652379c93
system.tol2bus.snoop_fanout::5                      0      0.00%    100.00% # Request fanout histogram
system.tol2bus.snoop_fanout::6                      0      0.00%    100.00% # Request fanout histogram
system.tol2bus.snoop_fanout::7                      0      0.00%    100.00% # Request fanout histogram
system.tol2bus.snoop_fanout::8                      0      0.00%    100.00% # Request fanout histogram
system.tol2bus.snoop_fanout::overflows              0      0.00%    100.00% # Request fanout histogram
system.tol2bus.snoop_fanout::min_value              0                       # Request fanout histogram
<<<<<<< HEAD
system.tol2bus.snoop_fanout::max_value              4                       # Request fanout histogram
system.tol2bus.snoop_fanout::total           87464480                       # Request fanout histogram
system.tol2bus.reqLayer0.occupancy        62177671288                       # Layer occupancy (ticks)
system.tol2bus.reqLayer0.utilization              9.8                       # Layer utilization (%)
system.tol2bus.respLayer5.occupancy       10418614257                       # Layer occupancy (ticks)
system.tol2bus.respLayer5.utilization             1.6                       # Layer utilization (%)
system.tol2bus.respLayer4.occupancy           9158096                       # Layer occupancy (ticks)
system.tol2bus.respLayer4.utilization             0.0                       # Layer utilization (%)
system.tol2bus.respLayer7.occupancy        9323122815                       # Layer occupancy (ticks)
system.tol2bus.respLayer7.utilization             1.5                       # Layer utilization (%)
system.tol2bus.respLayer6.occupancy           9126211                       # Layer occupancy (ticks)
system.tol2bus.respLayer6.utilization             0.0                       # Layer utilization (%)
system.tol2bus.respLayer1.occupancy       14401674418                       # Layer occupancy (ticks)
system.tol2bus.respLayer1.utilization             2.3                       # Layer utilization (%)
system.tol2bus.respLayer0.occupancy         605583644                       # Layer occupancy (ticks)
system.tol2bus.respLayer0.utilization             0.1                       # Layer utilization (%)
system.tol2bus.respLayer3.occupancy       11943754573                       # Layer occupancy (ticks)
system.tol2bus.respLayer3.utilization             1.9                       # Layer utilization (%)
system.tol2bus.respLayer2.occupancy           9299558                       # Layer occupancy (ticks)
system.tol2bus.respLayer2.utilization             0.0                       # Layer utilization (%)
system.tol2bus.snoopLayer0.occupancy            15083                       # Layer occupancy (ticks)
=======
system.tol2bus.snoop_fanout::max_value              2                       # Request fanout histogram
system.tol2bus.snoop_fanout::total          101470924                       # Request fanout histogram
system.tol2bus.reqLayer0.occupancy        62697122381                       # Layer occupancy (ticks)
system.tol2bus.reqLayer0.utilization              5.7                       # Layer utilization (%)
system.tol2bus.respLayer1.occupancy       26717405838                       # Layer occupancy (ticks)
system.tol2bus.respLayer1.utilization             2.4                       # Layer utilization (%)
system.tol2bus.respLayer0.occupancy         611621243                       # Layer occupancy (ticks)
system.tol2bus.respLayer0.utilization             0.1                       # Layer utilization (%)
system.tol2bus.respLayer3.occupancy       19718278704                       # Layer occupancy (ticks)
system.tol2bus.respLayer3.utilization             1.8                       # Layer utilization (%)
system.tol2bus.respLayer2.occupancy           8534901                       # Layer occupancy (ticks)
system.tol2bus.respLayer2.utilization             0.0                       # Layer utilization (%)
system.tol2bus.snoopLayer0.occupancy             4504                       # Layer occupancy (ticks)
>>>>>>> 6be7a0502e78ebf80a09b838e3e9c0d652379c93
system.tol2bus.snoopLayer0.utilization            0.0                       # Layer utilization (%)

---------- End Simulation Statistics   ----------
