
---------- Begin Simulation Statistics ----------
final_tick                               1043666603000                       # Number of ticks from beginning of simulation (restored from checkpoints and never reset)
host_inst_rate                                  58439                       # Simulator instruction rate (inst/s)
host_mem_usage                                 701936                       # Number of bytes of host memory used
host_op_rate                                    58631                       # Simulator op (including micro ops) rate (op/s)
host_seconds                                 18920.33                       # Real time elapsed on the host
host_tick_rate                               55161130                       # Simulator tick rate (ticks/s)
sim_freq                                 1000000000000                       # Frequency of simulated ticks
sim_insts                                  1105691899                       # Number of instructions simulated
sim_ops                                    1109317265                       # Number of ops (including micro ops) simulated
sim_seconds                                  1.043667                       # Number of seconds simulated
sim_ticks                                1043666603000                       # Number of ticks simulated
system.cpu0.branchPred.BTBCorrect                   0                       # Number of correct BTB predictions (this stat may not work properly.
system.cpu0.branchPred.BTBHitPct            88.594364                       # BTB Hit Percentage
system.cpu0.branchPred.BTBHits              143702940                       # Number of BTB hits
system.cpu0.branchPred.BTBLookups           162203252                       # Number of BTB lookups
system.cpu0.branchPred.RASInCorrect                 0                       # Number of incorrect RAS predictions.
system.cpu0.branchPred.condIncorrect         20697819                       # Number of conditional branches incorrect
system.cpu0.branchPred.condPredicted        219206823                       # Number of conditional branches predicted
system.cpu0.branchPred.indirectHits          17852563                       # Number of indirect target hits.
system.cpu0.branchPred.indirectLookups       18083288                       # Number of indirect predictor lookups.
system.cpu0.branchPred.indirectMisses          230725                       # Number of indirect misses.
system.cpu0.branchPred.lookups              278919716                       # Number of BP lookups
system.cpu0.branchPred.usedRAS                      0                       # Number of times the RAS was used to get a target.
system.cpu0.branchPredindirectMispredicted      1861517                       # Number of mispredicted indirect branches.
system.cpu0.commit.amos                       1811466                       # Number of atomic instructions committed
system.cpu0.commit.branchMispredicts         12460842                       # The number of times a branch was mispredicted
system.cpu0.commit.branches                 260654726                       # Number of branches committed
system.cpu0.commit.bw_lim_events             27292417                       # number cycles where commit BW limit reached
system.cpu0.commit.commitNonSpecStalls        5441374                       # The number of times commit has been forced to stall to communicate backwards
system.cpu0.commit.commitSquashedInsts       50132742                       # The number of squashed insts skipped by commit
system.cpu0.commit.committedInsts          1050628134                       # Number of instructions committed
system.cpu0.commit.committedOps            1052442123                       # Number of ops (including micro ops) committed
system.cpu0.commit.committed_per_cycle::samples   1941597409                       # Number of insts commited each cycle
system.cpu0.commit.committed_per_cycle::mean     0.542050                       # Number of insts commited each cycle
system.cpu0.commit.committed_per_cycle::stdev     1.285148                       # Number of insts commited each cycle
system.cpu0.commit.committed_per_cycle::underflows            0      0.00%      0.00% # Number of insts commited each cycle
system.cpu0.commit.committed_per_cycle::0   1426962741     73.49%     73.49% # Number of insts commited each cycle
system.cpu0.commit.committed_per_cycle::1    298928054     15.40%     88.89% # Number of insts commited each cycle
system.cpu0.commit.committed_per_cycle::2     84831137      4.37%     93.26% # Number of insts commited each cycle
system.cpu0.commit.committed_per_cycle::3     72188586      3.72%     96.98% # Number of insts commited each cycle
system.cpu0.commit.committed_per_cycle::4     19118226      0.98%     97.96% # Number of insts commited each cycle
system.cpu0.commit.committed_per_cycle::5      5058509      0.26%     98.22% # Number of insts commited each cycle
system.cpu0.commit.committed_per_cycle::6      3342921      0.17%     98.39% # Number of insts commited each cycle
system.cpu0.commit.committed_per_cycle::7      3874818      0.20%     98.59% # Number of insts commited each cycle
system.cpu0.commit.committed_per_cycle::8     27292417      1.41%    100.00% # Number of insts commited each cycle
system.cpu0.commit.committed_per_cycle::overflows            0      0.00%    100.00% # Number of insts commited each cycle
system.cpu0.commit.committed_per_cycle::min_value            0                       # Number of insts commited each cycle
system.cpu0.commit.committed_per_cycle::max_value            8                       # Number of insts commited each cycle
system.cpu0.commit.committed_per_cycle::total   1941597409                       # Number of insts commited each cycle
system.cpu0.commit.fp_insts                        50                       # Number of committed floating point instructions.
system.cpu0.commit.function_calls            20855942                       # Number of function calls committed.
system.cpu0.commit.int_insts               1015828932                       # Number of committed integer instructions.
system.cpu0.commit.loads                    326202892                       # Number of loads committed
system.cpu0.commit.membars                    3625347                       # Number of memory barriers committed
system.cpu0.commit.op_class_0::No_OpClass      3625353      0.34%      0.34% # Class of committed instruction
system.cpu0.commit.op_class_0::IntAlu       583820598     55.47%     55.82% # Class of committed instruction
system.cpu0.commit.op_class_0::IntMult        8030359      0.76%     56.58% # Class of committed instruction
system.cpu0.commit.op_class_0::IntDiv         1811037      0.17%     56.75% # Class of committed instruction
system.cpu0.commit.op_class_0::FloatAdd             0      0.00%     56.75% # Class of committed instruction
system.cpu0.commit.op_class_0::FloatCmp             4      0.00%     56.75% # Class of committed instruction
system.cpu0.commit.op_class_0::FloatCvt            12      0.00%     56.75% # Class of committed instruction
system.cpu0.commit.op_class_0::FloatMult            0      0.00%     56.75% # Class of committed instruction
system.cpu0.commit.op_class_0::FloatMultAcc            0      0.00%     56.75% # Class of committed instruction
system.cpu0.commit.op_class_0::FloatDiv             2      0.00%     56.75% # Class of committed instruction
system.cpu0.commit.op_class_0::FloatMisc            4      0.00%     56.75% # Class of committed instruction
system.cpu0.commit.op_class_0::FloatSqrt            0      0.00%     56.75% # Class of committed instruction
system.cpu0.commit.op_class_0::SimdAdd              0      0.00%     56.75% # Class of committed instruction
system.cpu0.commit.op_class_0::SimdAddAcc            0      0.00%     56.75% # Class of committed instruction
system.cpu0.commit.op_class_0::SimdAlu              0      0.00%     56.75% # Class of committed instruction
system.cpu0.commit.op_class_0::SimdCmp              0      0.00%     56.75% # Class of committed instruction
system.cpu0.commit.op_class_0::SimdCvt              0      0.00%     56.75% # Class of committed instruction
system.cpu0.commit.op_class_0::SimdMisc             0      0.00%     56.75% # Class of committed instruction
system.cpu0.commit.op_class_0::SimdMult             0      0.00%     56.75% # Class of committed instruction
system.cpu0.commit.op_class_0::SimdMultAcc            0      0.00%     56.75% # Class of committed instruction
system.cpu0.commit.op_class_0::SimdShift            0      0.00%     56.75% # Class of committed instruction
system.cpu0.commit.op_class_0::SimdShiftAcc            0      0.00%     56.75% # Class of committed instruction
system.cpu0.commit.op_class_0::SimdDiv              0      0.00%     56.75% # Class of committed instruction
system.cpu0.commit.op_class_0::SimdSqrt             0      0.00%     56.75% # Class of committed instruction
system.cpu0.commit.op_class_0::SimdFloatAdd            0      0.00%     56.75% # Class of committed instruction
system.cpu0.commit.op_class_0::SimdFloatAlu            0      0.00%     56.75% # Class of committed instruction
system.cpu0.commit.op_class_0::SimdFloatCmp            0      0.00%     56.75% # Class of committed instruction
system.cpu0.commit.op_class_0::SimdFloatCvt            0      0.00%     56.75% # Class of committed instruction
system.cpu0.commit.op_class_0::SimdFloatDiv            0      0.00%     56.75% # Class of committed instruction
system.cpu0.commit.op_class_0::SimdFloatMisc            0      0.00%     56.75% # Class of committed instruction
system.cpu0.commit.op_class_0::SimdFloatMult            0      0.00%     56.75% # Class of committed instruction
system.cpu0.commit.op_class_0::SimdFloatMultAcc            0      0.00%     56.75% # Class of committed instruction
system.cpu0.commit.op_class_0::SimdFloatSqrt            0      0.00%     56.75% # Class of committed instruction
system.cpu0.commit.op_class_0::SimdReduceAdd            0      0.00%     56.75% # Class of committed instruction
system.cpu0.commit.op_class_0::SimdReduceAlu            0      0.00%     56.75% # Class of committed instruction
system.cpu0.commit.op_class_0::SimdReduceCmp            0      0.00%     56.75% # Class of committed instruction
system.cpu0.commit.op_class_0::SimdFloatReduceAdd            0      0.00%     56.75% # Class of committed instruction
system.cpu0.commit.op_class_0::SimdFloatReduceCmp            0      0.00%     56.75% # Class of committed instruction
system.cpu0.commit.op_class_0::SimdAes              0      0.00%     56.75% # Class of committed instruction
system.cpu0.commit.op_class_0::SimdAesMix            0      0.00%     56.75% # Class of committed instruction
system.cpu0.commit.op_class_0::SimdSha1Hash            0      0.00%     56.75% # Class of committed instruction
system.cpu0.commit.op_class_0::SimdSha1Hash2            0      0.00%     56.75% # Class of committed instruction
system.cpu0.commit.op_class_0::SimdSha256Hash            0      0.00%     56.75% # Class of committed instruction
system.cpu0.commit.op_class_0::SimdSha256Hash2            0      0.00%     56.75% # Class of committed instruction
system.cpu0.commit.op_class_0::SimdShaSigma2            0      0.00%     56.75% # Class of committed instruction
system.cpu0.commit.op_class_0::SimdShaSigma3            0      0.00%     56.75% # Class of committed instruction
system.cpu0.commit.op_class_0::SimdPredAlu            0      0.00%     56.75% # Class of committed instruction
system.cpu0.commit.op_class_0::MemRead      328014350     31.17%     87.92% # Class of committed instruction
system.cpu0.commit.op_class_0::MemWrite     127140376     12.08%    100.00% # Class of committed instruction
system.cpu0.commit.op_class_0::FloatMemRead            8      0.00%    100.00% # Class of committed instruction
system.cpu0.commit.op_class_0::FloatMemWrite           20      0.00%    100.00% # Class of committed instruction
system.cpu0.commit.op_class_0::IprAccess            0      0.00%    100.00% # Class of committed instruction
system.cpu0.commit.op_class_0::InstPrefetch            0      0.00%    100.00% # Class of committed instruction
system.cpu0.commit.op_class_0::total       1052442123                       # Class of committed instruction
system.cpu0.commit.refs                     455154754                       # Number of memory references committed
system.cpu0.commit.swp_count                        0                       # Number of s/w prefetches committed
system.cpu0.commit.vec_insts                        0                       # Number of committed Vector instructions.
system.cpu0.committedInsts                 1050628134                       # Number of Instructions Simulated
system.cpu0.committedOps                   1052442123                       # Number of Ops (including micro ops) Simulated
system.cpu0.cpi                              1.983122                       # CPI: Cycles Per Instruction
system.cpu0.cpi_total                        1.983122                       # CPI: Total CPI of All Threads
system.cpu0.decode.BlockedCycles            327651470                       # Number of cycles decode is blocked
system.cpu0.decode.BranchMispred              8246197                       # Number of times decode detected a branch misprediction
system.cpu0.decode.BranchResolved           142947647                       # Number of times decode resolved a branch
system.cpu0.decode.DecodedInsts            1129519586                       # Number of instructions handled by decode
system.cpu0.decode.IdleCycles               833226682                       # Number of cycles decode is idle
system.cpu0.decode.RunCycles                778011870                       # Number of cycles decode is running
system.cpu0.decode.SquashCycles              12472790                       # Number of cycles decode is squashing
system.cpu0.decode.SquashedInsts             16900215                       # Number of squashed instructions handled by decode
system.cpu0.decode.UnblockCycles              5396955                       # Number of cycles decode is unblocking
system.cpu0.dtb.accesses                            0                       # DTB accesses
system.cpu0.dtb.hits                                0                       # DTB hits
system.cpu0.dtb.misses                              0                       # DTB misses
system.cpu0.dtb.read_accesses                       0                       # DTB read accesses
system.cpu0.dtb.read_hits                           0                       # DTB read hits
system.cpu0.dtb.read_misses                         0                       # DTB read misses
system.cpu0.dtb.write_accesses                      0                       # DTB write accesses
system.cpu0.dtb.write_hits                          0                       # DTB write hits
system.cpu0.dtb.write_misses                        0                       # DTB write misses
system.cpu0.fetch.Branches                  278919716                       # Number of branches that fetch encountered
system.cpu0.fetch.CacheLines                210249827                       # Number of cache lines fetched
system.cpu0.fetch.Cycles                   1129425929                       # Number of cycles fetch has run and was not squashing or blocked
system.cpu0.fetch.IcacheSquashes              7048896                       # Number of outstanding Icache misses that were squashed
system.cpu0.fetch.IcacheWaitRetryStallCycles           73                       # Number of stall cycles due to full MSHR
system.cpu0.fetch.Insts                    1155232764                       # Number of instructions fetch has processed
system.cpu0.fetch.MiscStallCycles                  75                       # Number of cycles fetch has spent waiting on interrupts, or bad addresses, or out of MSHRs
system.cpu0.fetch.PendingTrapStallCycles          402                       # Number of stall cycles due to pending traps
system.cpu0.fetch.SquashCycles               41419656                       # Number of cycles fetch has spent squashing
system.cpu0.fetch.branchRate                 0.133869                       # Number of branch fetches per cycle
system.cpu0.fetch.icacheStallCycles         806623460                       # Number of cycles fetch is stalled on an Icache miss
system.cpu0.fetch.predictedBranches         161555503                       # Number of branches that fetch has predicted taken
system.cpu0.fetch.rate                       0.554461                       # Number of inst fetches per cycle
system.cpu0.fetch.rateDist::samples        1956759767                       # Number of instructions fetched each cycle (Total)
system.cpu0.fetch.rateDist::mean             0.591316                       # Number of instructions fetched each cycle (Total)
system.cpu0.fetch.rateDist::stdev            0.894067                       # Number of instructions fetched each cycle (Total)
system.cpu0.fetch.rateDist::underflows              0      0.00%      0.00% # Number of instructions fetched each cycle (Total)
system.cpu0.fetch.rateDist::0              1144207477     58.47%     58.47% # Number of instructions fetched each cycle (Total)
system.cpu0.fetch.rateDist::1               604992151     30.92%     89.39% # Number of instructions fetched each cycle (Total)
system.cpu0.fetch.rateDist::2               107577272      5.50%     94.89% # Number of instructions fetched each cycle (Total)
system.cpu0.fetch.rateDist::3                78305481      4.00%     98.89% # Number of instructions fetched each cycle (Total)
system.cpu0.fetch.rateDist::4                14256739      0.73%     99.62% # Number of instructions fetched each cycle (Total)
system.cpu0.fetch.rateDist::5                 3491246      0.18%     99.80% # Number of instructions fetched each cycle (Total)
system.cpu0.fetch.rateDist::6                   93062      0.00%     99.80% # Number of instructions fetched each cycle (Total)
system.cpu0.fetch.rateDist::7                 3731896      0.19%     99.99% # Number of instructions fetched each cycle (Total)
system.cpu0.fetch.rateDist::8                  104443      0.01%    100.00% # Number of instructions fetched each cycle (Total)
system.cpu0.fetch.rateDist::overflows               0      0.00%    100.00% # Number of instructions fetched each cycle (Total)
system.cpu0.fetch.rateDist::min_value               0                       # Number of instructions fetched each cycle (Total)
system.cpu0.fetch.rateDist::max_value               8                       # Number of instructions fetched each cycle (Total)
system.cpu0.fetch.rateDist::total          1956759767                       # Number of instructions fetched each cycle (Total)
system.cpu0.fp_regfile_reads                       46                       # number of floating regfile reads
system.cpu0.fp_regfile_writes                      23                       # number of floating regfile writes
system.cpu0.idleCycles                      126764354                       # Total number of cycles that the CPU has spent unscheduled due to idling
system.cpu0.iew.branchMispredicts            12554346                       # Number of branch mispredicts detected at execute
system.cpu0.iew.exec_branches               267184275                       # Number of branches executed
system.cpu0.iew.exec_nop                            0                       # number of nop insts executed
system.cpu0.iew.exec_rate                    0.521988                       # Inst execution rate
system.cpu0.iew.exec_refs                   475757132                       # number of memory reference insts executed
system.cpu0.iew.exec_stores                 132036733                       # Number of stores executed
system.cpu0.iew.exec_swp                            0                       # number of swp insts executed
system.cpu0.iew.iewBlockCycles              274340261                       # Number of cycles IEW is blocking
system.cpu0.iew.iewDispLoadInsts            347572150                       # Number of dispatched load instructions
system.cpu0.iew.iewDispNonSpecInsts           1824159                       # Number of dispatched non-speculative instructions
system.cpu0.iew.iewDispSquashedInsts          6584111                       # Number of squashed instructions skipped by dispatch
system.cpu0.iew.iewDispStoreInsts           133365210                       # Number of dispatched store instructions
system.cpu0.iew.iewDispatchedInsts         1102559310                       # Number of instructions dispatched to IQ
system.cpu0.iew.iewExecLoadInsts            343720399                       # Number of load instructions executed
system.cpu0.iew.iewExecSquashedInsts          7468678                       # Number of squashed instructions skipped in execute
system.cpu0.iew.iewExecutedInsts           1087573704                       # Number of executed instructions
system.cpu0.iew.iewIQFullEvents               1664459                       # Number of times the IQ has become full, causing a stall
system.cpu0.iew.iewIdleCycles                       0                       # Number of cycles IEW is idle
system.cpu0.iew.iewLSQFullEvents              3607252                       # Number of times the LSQ has become full, causing a stall
system.cpu0.iew.iewSquashCycles              12472790                       # Number of cycles IEW is squashing
system.cpu0.iew.iewUnblockCycles              7284570                       # Number of cycles IEW is unblocking
system.cpu0.iew.lsq.thread0.blockedLoads            0                       # Number of blocked loads due to partial load-store forwarding
system.cpu0.iew.lsq.thread0.cacheBlocked        80441                       # Number of times an access to memory failed due to the cache being blocked
system.cpu0.iew.lsq.thread0.forwLoads        15730551                       # Number of loads that had data forwarded from stores
system.cpu0.iew.lsq.thread0.ignoredResponses        38167                       # Number of memory responses ignored because the instruction is squashed
system.cpu0.iew.lsq.thread0.invAddrLoads            0                       # Number of loads ignored due to an invalid address
system.cpu0.iew.lsq.thread0.invAddrSwpfs            0                       # Number of software prefetches ignored due to an invalid address
system.cpu0.iew.lsq.thread0.memOrderViolation        12061                       # Number of memory ordering violations
system.cpu0.iew.lsq.thread0.rescheduledLoads      3945477                       # Number of loads that were rescheduled
system.cpu0.iew.lsq.thread0.squashedLoads     21369258                       # Number of loads squashed
system.cpu0.iew.lsq.thread0.squashedStores      4413348                       # Number of stores squashed
system.cpu0.iew.memOrderViolationEvents         12061                       # Number of memory order violations
system.cpu0.iew.predictedNotTakenIncorrect      1170135                       # Number of branches that were predicted not taken incorrectly
system.cpu0.iew.predictedTakenIncorrect      11384211                       # Number of branches that were predicted taken incorrectly
system.cpu0.iew.wb_consumers                464069797                       # num instructions consuming a value
system.cpu0.iew.wb_count                   1078896560                       # cumulative count of insts written-back
system.cpu0.iew.wb_fanout                    0.871811                       # average fanout of values written-back
system.cpu0.iew.wb_producers                404581116                       # num instructions producing a value
system.cpu0.iew.wb_rate                      0.517823                       # insts written-back per cycle
system.cpu0.iew.wb_sent                    1078968056                       # cumulative count of insts sent to commit
system.cpu0.int_regfile_reads              1329353799                       # number of integer regfile reads
system.cpu0.int_regfile_writes              687574244                       # number of integer regfile writes
system.cpu0.ipc                              0.504255                       # IPC: Instructions Per Cycle
system.cpu0.ipc_total                        0.504255                       # IPC: Total IPC of All Threads
system.cpu0.iq.FU_type_0::No_OpClass          3626892      0.33%      0.33% # Type of FU issued
system.cpu0.iq.FU_type_0::IntAlu            601123288     54.89%     55.23% # Type of FU issued
system.cpu0.iq.FU_type_0::IntMult             8036317      0.73%     55.96% # Type of FU issued
system.cpu0.iq.FU_type_0::IntDiv              1811539      0.17%     56.13% # Type of FU issued
system.cpu0.iq.FU_type_0::FloatAdd                  0      0.00%     56.13% # Type of FU issued
system.cpu0.iq.FU_type_0::FloatCmp                  4      0.00%     56.13% # Type of FU issued
system.cpu0.iq.FU_type_0::FloatCvt                 12      0.00%     56.13% # Type of FU issued
system.cpu0.iq.FU_type_0::FloatMult                 0      0.00%     56.13% # Type of FU issued
system.cpu0.iq.FU_type_0::FloatMultAcc              0      0.00%     56.13% # Type of FU issued
system.cpu0.iq.FU_type_0::FloatDiv                  2      0.00%     56.13% # Type of FU issued
system.cpu0.iq.FU_type_0::FloatMisc                 4      0.00%     56.13% # Type of FU issued
system.cpu0.iq.FU_type_0::FloatSqrt                 0      0.00%     56.13% # Type of FU issued
system.cpu0.iq.FU_type_0::SimdAdd                   0      0.00%     56.13% # Type of FU issued
system.cpu0.iq.FU_type_0::SimdAddAcc                0      0.00%     56.13% # Type of FU issued
system.cpu0.iq.FU_type_0::SimdAlu                   0      0.00%     56.13% # Type of FU issued
system.cpu0.iq.FU_type_0::SimdCmp                   0      0.00%     56.13% # Type of FU issued
system.cpu0.iq.FU_type_0::SimdCvt                   0      0.00%     56.13% # Type of FU issued
system.cpu0.iq.FU_type_0::SimdMisc                  0      0.00%     56.13% # Type of FU issued
system.cpu0.iq.FU_type_0::SimdMult                  0      0.00%     56.13% # Type of FU issued
system.cpu0.iq.FU_type_0::SimdMultAcc               0      0.00%     56.13% # Type of FU issued
system.cpu0.iq.FU_type_0::SimdShift                 0      0.00%     56.13% # Type of FU issued
system.cpu0.iq.FU_type_0::SimdShiftAcc              0      0.00%     56.13% # Type of FU issued
system.cpu0.iq.FU_type_0::SimdDiv                   0      0.00%     56.13% # Type of FU issued
system.cpu0.iq.FU_type_0::SimdSqrt                  0      0.00%     56.13% # Type of FU issued
system.cpu0.iq.FU_type_0::SimdFloatAdd              0      0.00%     56.13% # Type of FU issued
system.cpu0.iq.FU_type_0::SimdFloatAlu              0      0.00%     56.13% # Type of FU issued
system.cpu0.iq.FU_type_0::SimdFloatCmp              0      0.00%     56.13% # Type of FU issued
system.cpu0.iq.FU_type_0::SimdFloatCvt              0      0.00%     56.13% # Type of FU issued
system.cpu0.iq.FU_type_0::SimdFloatDiv              0      0.00%     56.13% # Type of FU issued
system.cpu0.iq.FU_type_0::SimdFloatMisc             0      0.00%     56.13% # Type of FU issued
system.cpu0.iq.FU_type_0::SimdFloatMult             0      0.00%     56.13% # Type of FU issued
system.cpu0.iq.FU_type_0::SimdFloatMultAcc            0      0.00%     56.13% # Type of FU issued
system.cpu0.iq.FU_type_0::SimdFloatSqrt             0      0.00%     56.13% # Type of FU issued
system.cpu0.iq.FU_type_0::SimdReduceAdd             0      0.00%     56.13% # Type of FU issued
system.cpu0.iq.FU_type_0::SimdReduceAlu             0      0.00%     56.13% # Type of FU issued
system.cpu0.iq.FU_type_0::SimdReduceCmp             0      0.00%     56.13% # Type of FU issued
system.cpu0.iq.FU_type_0::SimdFloatReduceAdd            0      0.00%     56.13% # Type of FU issued
system.cpu0.iq.FU_type_0::SimdFloatReduceCmp            0      0.00%     56.13% # Type of FU issued
system.cpu0.iq.FU_type_0::SimdAes                   0      0.00%     56.13% # Type of FU issued
system.cpu0.iq.FU_type_0::SimdAesMix                0      0.00%     56.13% # Type of FU issued
system.cpu0.iq.FU_type_0::SimdSha1Hash              0      0.00%     56.13% # Type of FU issued
system.cpu0.iq.FU_type_0::SimdSha1Hash2             0      0.00%     56.13% # Type of FU issued
system.cpu0.iq.FU_type_0::SimdSha256Hash            0      0.00%     56.13% # Type of FU issued
system.cpu0.iq.FU_type_0::SimdSha256Hash2            0      0.00%     56.13% # Type of FU issued
system.cpu0.iq.FU_type_0::SimdShaSigma2             0      0.00%     56.13% # Type of FU issued
system.cpu0.iq.FU_type_0::SimdShaSigma3             0      0.00%     56.13% # Type of FU issued
system.cpu0.iq.FU_type_0::SimdPredAlu               0      0.00%     56.13% # Type of FU issued
system.cpu0.iq.FU_type_0::MemRead           349655929     31.93%     88.06% # Type of FU issued
system.cpu0.iq.FU_type_0::MemWrite          130788364     11.94%    100.00% # Type of FU issued
system.cpu0.iq.FU_type_0::FloatMemRead             10      0.00%    100.00% # Type of FU issued
system.cpu0.iq.FU_type_0::FloatMemWrite            22      0.00%    100.00% # Type of FU issued
system.cpu0.iq.FU_type_0::IprAccess                 0      0.00%    100.00% # Type of FU issued
system.cpu0.iq.FU_type_0::InstPrefetch              0      0.00%    100.00% # Type of FU issued
system.cpu0.iq.FU_type_0::total            1095042383                       # Type of FU issued
system.cpu0.iq.fp_alu_accesses                     56                       # Number of floating point alu accesses
system.cpu0.iq.fp_inst_queue_reads                110                       # Number of floating instruction queue reads
system.cpu0.iq.fp_inst_queue_wakeup_accesses           53                       # Number of floating instruction queue wakeup accesses
system.cpu0.iq.fp_inst_queue_writes                56                       # Number of floating instruction queue writes
system.cpu0.iq.fu_busy_cnt                    2380357                       # FU busy when requested
system.cpu0.iq.fu_busy_rate                  0.002174                       # FU busy rate (busy events/executed inst)
system.cpu0.iq.fu_full::No_OpClass                  0      0.00%      0.00% # attempts to use FU when none available
system.cpu0.iq.fu_full::IntAlu                 378711     15.91%     15.91% # attempts to use FU when none available
system.cpu0.iq.fu_full::IntMult                     0      0.00%     15.91% # attempts to use FU when none available
system.cpu0.iq.fu_full::IntDiv                      0      0.00%     15.91% # attempts to use FU when none available
system.cpu0.iq.fu_full::FloatAdd                    0      0.00%     15.91% # attempts to use FU when none available
system.cpu0.iq.fu_full::FloatCmp                    0      0.00%     15.91% # attempts to use FU when none available
system.cpu0.iq.fu_full::FloatCvt                    0      0.00%     15.91% # attempts to use FU when none available
system.cpu0.iq.fu_full::FloatMult                   0      0.00%     15.91% # attempts to use FU when none available
system.cpu0.iq.fu_full::FloatMultAcc                0      0.00%     15.91% # attempts to use FU when none available
system.cpu0.iq.fu_full::FloatDiv                    0      0.00%     15.91% # attempts to use FU when none available
system.cpu0.iq.fu_full::FloatMisc                   0      0.00%     15.91% # attempts to use FU when none available
system.cpu0.iq.fu_full::FloatSqrt                   0      0.00%     15.91% # attempts to use FU when none available
system.cpu0.iq.fu_full::SimdAdd                     0      0.00%     15.91% # attempts to use FU when none available
system.cpu0.iq.fu_full::SimdAddAcc                  0      0.00%     15.91% # attempts to use FU when none available
system.cpu0.iq.fu_full::SimdAlu                     0      0.00%     15.91% # attempts to use FU when none available
system.cpu0.iq.fu_full::SimdCmp                     0      0.00%     15.91% # attempts to use FU when none available
system.cpu0.iq.fu_full::SimdCvt                     0      0.00%     15.91% # attempts to use FU when none available
system.cpu0.iq.fu_full::SimdMisc                    0      0.00%     15.91% # attempts to use FU when none available
system.cpu0.iq.fu_full::SimdMult                    0      0.00%     15.91% # attempts to use FU when none available
system.cpu0.iq.fu_full::SimdMultAcc                 0      0.00%     15.91% # attempts to use FU when none available
system.cpu0.iq.fu_full::SimdShift                   0      0.00%     15.91% # attempts to use FU when none available
system.cpu0.iq.fu_full::SimdShiftAcc                0      0.00%     15.91% # attempts to use FU when none available
system.cpu0.iq.fu_full::SimdDiv                     0      0.00%     15.91% # attempts to use FU when none available
system.cpu0.iq.fu_full::SimdSqrt                    0      0.00%     15.91% # attempts to use FU when none available
system.cpu0.iq.fu_full::SimdFloatAdd                0      0.00%     15.91% # attempts to use FU when none available
system.cpu0.iq.fu_full::SimdFloatAlu                0      0.00%     15.91% # attempts to use FU when none available
system.cpu0.iq.fu_full::SimdFloatCmp                0      0.00%     15.91% # attempts to use FU when none available
system.cpu0.iq.fu_full::SimdFloatCvt                0      0.00%     15.91% # attempts to use FU when none available
system.cpu0.iq.fu_full::SimdFloatDiv                0      0.00%     15.91% # attempts to use FU when none available
system.cpu0.iq.fu_full::SimdFloatMisc               0      0.00%     15.91% # attempts to use FU when none available
system.cpu0.iq.fu_full::SimdFloatMult               0      0.00%     15.91% # attempts to use FU when none available
system.cpu0.iq.fu_full::SimdFloatMultAcc            0      0.00%     15.91% # attempts to use FU when none available
system.cpu0.iq.fu_full::SimdFloatSqrt               0      0.00%     15.91% # attempts to use FU when none available
system.cpu0.iq.fu_full::SimdReduceAdd               0      0.00%     15.91% # attempts to use FU when none available
system.cpu0.iq.fu_full::SimdReduceAlu               0      0.00%     15.91% # attempts to use FU when none available
system.cpu0.iq.fu_full::SimdReduceCmp               0      0.00%     15.91% # attempts to use FU when none available
system.cpu0.iq.fu_full::SimdFloatReduceAdd            0      0.00%     15.91% # attempts to use FU when none available
system.cpu0.iq.fu_full::SimdFloatReduceCmp            0      0.00%     15.91% # attempts to use FU when none available
system.cpu0.iq.fu_full::SimdAes                     0      0.00%     15.91% # attempts to use FU when none available
system.cpu0.iq.fu_full::SimdAesMix                  0      0.00%     15.91% # attempts to use FU when none available
system.cpu0.iq.fu_full::SimdSha1Hash                0      0.00%     15.91% # attempts to use FU when none available
system.cpu0.iq.fu_full::SimdSha1Hash2               0      0.00%     15.91% # attempts to use FU when none available
system.cpu0.iq.fu_full::SimdSha256Hash              0      0.00%     15.91% # attempts to use FU when none available
system.cpu0.iq.fu_full::SimdSha256Hash2             0      0.00%     15.91% # attempts to use FU when none available
system.cpu0.iq.fu_full::SimdShaSigma2               0      0.00%     15.91% # attempts to use FU when none available
system.cpu0.iq.fu_full::SimdShaSigma3               0      0.00%     15.91% # attempts to use FU when none available
system.cpu0.iq.fu_full::SimdPredAlu                 0      0.00%     15.91% # attempts to use FU when none available
system.cpu0.iq.fu_full::MemRead               1801652     75.69%     91.60% # attempts to use FU when none available
system.cpu0.iq.fu_full::MemWrite               199992      8.40%    100.00% # attempts to use FU when none available
system.cpu0.iq.fu_full::FloatMemRead                0      0.00%    100.00% # attempts to use FU when none available
system.cpu0.iq.fu_full::FloatMemWrite               2      0.00%    100.00% # attempts to use FU when none available
system.cpu0.iq.fu_full::IprAccess                   0      0.00%    100.00% # attempts to use FU when none available
system.cpu0.iq.fu_full::InstPrefetch                0      0.00%    100.00% # attempts to use FU when none available
system.cpu0.iq.int_alu_accesses            1093795792                       # Number of integer alu accesses
system.cpu0.iq.int_inst_queue_reads        4149342811                       # Number of integer instruction queue reads
system.cpu0.iq.int_inst_queue_wakeup_accesses   1078896507                       # Number of integer instruction queue wakeup accesses
system.cpu0.iq.int_inst_queue_writes       1152687667                       # Number of integer instruction queue writes
system.cpu0.iq.iqInstsAdded                1097093635                       # Number of instructions added to the IQ (excludes non-spec)
system.cpu0.iq.iqInstsIssued               1095042383                       # Number of instructions issued
system.cpu0.iq.iqNonSpecInstsAdded            5465675                       # Number of non-speculative instructions added to the IQ
system.cpu0.iq.iqSquashedInstsExamined       50117183                       # Number of squashed instructions iterated over during squash; mainly for profiling
system.cpu0.iq.iqSquashedInstsIssued           118032                       # Number of squashed instructions issued
system.cpu0.iq.iqSquashedNonSpecRemoved         24301                       # Number of squashed non-spec instructions that were removed
system.cpu0.iq.iqSquashedOperandsExamined     26319689                       # Number of squashed operands that are examined and possibly removed from graph
system.cpu0.iq.issued_per_cycle::samples   1956759767                       # Number of insts issued each cycle
system.cpu0.iq.issued_per_cycle::mean        0.559620                       # Number of insts issued each cycle
system.cpu0.iq.issued_per_cycle::stdev       0.796574                       # Number of insts issued each cycle
system.cpu0.iq.issued_per_cycle::underflows            0      0.00%      0.00% # Number of insts issued each cycle
system.cpu0.iq.issued_per_cycle::0         1152874733     58.92%     58.92% # Number of insts issued each cycle
system.cpu0.iq.issued_per_cycle::1          577609715     29.52%     88.44% # Number of insts issued each cycle
system.cpu0.iq.issued_per_cycle::2          177554169      9.07%     97.51% # Number of insts issued each cycle
system.cpu0.iq.issued_per_cycle::3           37174680      1.90%     99.41% # Number of insts issued each cycle
system.cpu0.iq.issued_per_cycle::4            9015863      0.46%     99.87% # Number of insts issued each cycle
system.cpu0.iq.issued_per_cycle::5            1109444      0.06%     99.93% # Number of insts issued each cycle
system.cpu0.iq.issued_per_cycle::6             892418      0.05%     99.97% # Number of insts issued each cycle
system.cpu0.iq.issued_per_cycle::7             394850      0.02%     99.99% # Number of insts issued each cycle
system.cpu0.iq.issued_per_cycle::8             133895      0.01%    100.00% # Number of insts issued each cycle
system.cpu0.iq.issued_per_cycle::overflows            0      0.00%    100.00% # Number of insts issued each cycle
system.cpu0.iq.issued_per_cycle::min_value            0                       # Number of insts issued each cycle
system.cpu0.iq.issued_per_cycle::max_value            8                       # Number of insts issued each cycle
system.cpu0.iq.issued_per_cycle::total     1956759767                       # Number of insts issued each cycle
system.cpu0.iq.rate                          0.525572                       # Inst issue rate
system.cpu0.iq.vec_alu_accesses                     0                       # Number of vector alu accesses
system.cpu0.iq.vec_inst_queue_reads                 0                       # Number of vector instruction queue reads
system.cpu0.iq.vec_inst_queue_wakeup_accesses            0                       # Number of vector instruction queue wakeup accesses
system.cpu0.iq.vec_inst_queue_writes                0                       # Number of vector instruction queue writes
system.cpu0.itb.accesses                            0                       # DTB accesses
system.cpu0.itb.hits                                0                       # DTB hits
system.cpu0.itb.misses                              0                       # DTB misses
system.cpu0.itb.read_accesses                       0                       # DTB read accesses
system.cpu0.itb.read_hits                           0                       # DTB read hits
system.cpu0.itb.read_misses                         0                       # DTB read misses
system.cpu0.itb.write_accesses                      0                       # DTB write accesses
system.cpu0.itb.write_hits                          0                       # DTB write hits
system.cpu0.itb.write_misses                        0                       # DTB write misses
system.cpu0.memDep0.conflictingLoads         20157660                       # Number of conflicting loads.
system.cpu0.memDep0.conflictingStores         3048905                       # Number of conflicting stores.
system.cpu0.memDep0.insertedLoads           347572150                       # Number of loads inserted to the mem dependence unit.
system.cpu0.memDep0.insertedStores          133365210                       # Number of stores inserted to the mem dependence unit.
system.cpu0.misc_regfile_reads                   1504                       # number of misc regfile reads
system.cpu0.misc_regfile_writes                    22                       # number of misc regfile writes
system.cpu0.numCycles                      2083524121                       # number of cpu cycles simulated
system.cpu0.numWorkItemsCompleted                   0                       # number of work items this cpu completed
system.cpu0.numWorkItemsStarted                     0                       # number of work items this cpu started
system.cpu0.quiesceCycles                     3811028                       # Total number of cycles that CPU has spent quiesced or waiting for an interrupt
system.cpu0.rename.BlockCycles              295378497                       # Number of cycles rename is blocking
system.cpu0.rename.CommittedMaps            670535940                       # Number of HB maps that are committed
system.cpu0.rename.IQFullEvents              12299419                       # Number of times rename has blocked due to IQ full
system.cpu0.rename.IdleCycles               849665887                       # Number of cycles rename is idle
system.cpu0.rename.LQFullEvents              10383256                       # Number of times rename has blocked due to LQ full
system.cpu0.rename.ROBFullEvents                34160                       # Number of times rename has blocked due to ROB full
system.cpu0.rename.RenameLookups           1366992267                       # Number of register rename lookups that rename has made
system.cpu0.rename.RenamedInsts            1118764034                       # Number of instructions processed by rename
system.cpu0.rename.RenamedOperands          718846383                       # Number of destination operands rename has renamed
system.cpu0.rename.RunCycles                766006138                       # Number of cycles rename is running
system.cpu0.rename.SQFullEvents              10153676                       # Number of times rename has blocked due to SQ full
system.cpu0.rename.SquashCycles              12472790                       # Number of cycles rename is squashing
system.cpu0.rename.UnblockCycles             33109178                       # Number of cycles rename is unblocking
system.cpu0.rename.UndoneMaps                48310438                       # Number of HB maps that are undone due to squashing
system.cpu0.rename.fp_rename_lookups               46                       # Number of floating rename lookups
system.cpu0.rename.int_rename_lookups      1366992221                       # Number of integer rename lookups
system.cpu0.rename.serializeStallCycles        127277                       # count of cycles rename stalled for serializing inst
system.cpu0.rename.serializingInsts              4709                       # count of serializing insts renamed
system.cpu0.rename.skidInsts                 24983806                       # count of insts added to the skid buffer
system.cpu0.rename.tempSerializingInsts          4660                       # count of temporary serializing insts renamed
system.cpu0.rob.rob_reads                  3016860773                       # The number of ROB reads
system.cpu0.rob.rob_writes                 2220330683                       # The number of ROB writes
system.cpu0.timesIdled                       24546081                       # Number of times that the entire CPU went into an idle state and unscheduled itself
system.cpu0.workload.numSyscalls                 1471                       # Number of system calls
system.cpu1.branchPred.BTBCorrect                   0                       # Number of correct BTB predictions (this stat may not work properly.
system.cpu1.branchPred.BTBHitPct            93.102737                       # BTB Hit Percentage
system.cpu1.branchPred.BTBHits                9680034                       # Number of BTB hits
system.cpu1.branchPred.BTBLookups            10397153                       # Number of BTB lookups
system.cpu1.branchPred.RASInCorrect                 0                       # Number of incorrect RAS predictions.
system.cpu1.branchPred.condIncorrect          1974951                       # Number of conditional branches incorrect
system.cpu1.branchPred.condPredicted         18996772                       # Number of conditional branches predicted
system.cpu1.branchPred.indirectHits            332105                       # Number of indirect target hits.
system.cpu1.branchPred.indirectLookups         671014                       # Number of indirect predictor lookups.
system.cpu1.branchPred.indirectMisses          338909                       # Number of indirect misses.
system.cpu1.branchPred.lookups               20867583                       # Number of BP lookups
system.cpu1.branchPred.usedRAS                      0                       # Number of times the RAS was used to get a target.
system.cpu1.branchPredindirectMispredicted         4803                       # Number of mispredicted indirect branches.
system.cpu1.commit.amos                       1811198                       # Number of atomic instructions committed
system.cpu1.commit.branchMispredicts          1155056                       # The number of times a branch was mispredicted
system.cpu1.commit.branches                  12199874                       # Number of branches committed
system.cpu1.commit.bw_lim_events              1254310                       # number cycles where commit BW limit reached
system.cpu1.commit.commitNonSpecStalls        5434266                       # The number of times commit has been forced to stall to communicate backwards
system.cpu1.commit.commitSquashedInsts       22244341                       # The number of squashed insts skipped by commit
system.cpu1.commit.committedInsts            55063765                       # Number of instructions committed
system.cpu1.commit.committedOps              56875142                       # Number of ops (including micro ops) committed
system.cpu1.commit.committed_per_cycle::samples    325877933                       # Number of insts commited each cycle
system.cpu1.commit.committed_per_cycle::mean     0.174529                       # Number of insts commited each cycle
system.cpu1.commit.committed_per_cycle::stdev     0.820492                       # Number of insts commited each cycle
system.cpu1.commit.committed_per_cycle::underflows            0      0.00%      0.00% # Number of insts commited each cycle
system.cpu1.commit.committed_per_cycle::0    302112647     92.71%     92.71% # Number of insts commited each cycle
system.cpu1.commit.committed_per_cycle::1     11868334      3.64%     96.35% # Number of insts commited each cycle
system.cpu1.commit.committed_per_cycle::2      3977188      1.22%     97.57% # Number of insts commited each cycle
system.cpu1.commit.committed_per_cycle::3      3660221      1.12%     98.69% # Number of insts commited each cycle
system.cpu1.commit.committed_per_cycle::4       902347      0.28%     98.97% # Number of insts commited each cycle
system.cpu1.commit.committed_per_cycle::5       317889      0.10%     99.07% # Number of insts commited each cycle
system.cpu1.commit.committed_per_cycle::6      1656523      0.51%     99.58% # Number of insts commited each cycle
system.cpu1.commit.committed_per_cycle::7       128474      0.04%     99.62% # Number of insts commited each cycle
system.cpu1.commit.committed_per_cycle::8      1254310      0.38%    100.00% # Number of insts commited each cycle
system.cpu1.commit.committed_per_cycle::overflows            0      0.00%    100.00% # Number of insts commited each cycle
system.cpu1.commit.committed_per_cycle::min_value            0                       # Number of insts commited each cycle
system.cpu1.commit.committed_per_cycle::max_value            8                       # Number of insts commited each cycle
system.cpu1.commit.committed_per_cycle::total    325877933                       # Number of insts commited each cycle
system.cpu1.commit.fp_insts                        12                       # Number of committed floating point instructions.
system.cpu1.commit.function_calls              502060                       # Number of function calls committed.
system.cpu1.commit.int_insts                 52961236                       # Number of committed integer instructions.
system.cpu1.commit.loads                     16123833                       # Number of loads committed
system.cpu1.commit.membars                    3622522                       # Number of memory barriers committed
system.cpu1.commit.op_class_0::No_OpClass      3622522      6.37%      6.37% # Class of committed instruction
system.cpu1.commit.op_class_0::IntAlu        32002543     56.27%     62.64% # Class of committed instruction
system.cpu1.commit.op_class_0::IntMult             43      0.00%     62.64% # Class of committed instruction
system.cpu1.commit.op_class_0::IntDiv              86      0.00%     62.64% # Class of committed instruction
system.cpu1.commit.op_class_0::FloatAdd             0      0.00%     62.64% # Class of committed instruction
system.cpu1.commit.op_class_0::FloatCmp             0      0.00%     62.64% # Class of committed instruction
system.cpu1.commit.op_class_0::FloatCvt             0      0.00%     62.64% # Class of committed instruction
system.cpu1.commit.op_class_0::FloatMult            0      0.00%     62.64% # Class of committed instruction
system.cpu1.commit.op_class_0::FloatMultAcc            0      0.00%     62.64% # Class of committed instruction
system.cpu1.commit.op_class_0::FloatDiv             0      0.00%     62.64% # Class of committed instruction
system.cpu1.commit.op_class_0::FloatMisc            0      0.00%     62.64% # Class of committed instruction
system.cpu1.commit.op_class_0::FloatSqrt            0      0.00%     62.64% # Class of committed instruction
system.cpu1.commit.op_class_0::SimdAdd              0      0.00%     62.64% # Class of committed instruction
system.cpu1.commit.op_class_0::SimdAddAcc            0      0.00%     62.64% # Class of committed instruction
system.cpu1.commit.op_class_0::SimdAlu              0      0.00%     62.64% # Class of committed instruction
system.cpu1.commit.op_class_0::SimdCmp              0      0.00%     62.64% # Class of committed instruction
system.cpu1.commit.op_class_0::SimdCvt              0      0.00%     62.64% # Class of committed instruction
system.cpu1.commit.op_class_0::SimdMisc             0      0.00%     62.64% # Class of committed instruction
system.cpu1.commit.op_class_0::SimdMult             0      0.00%     62.64% # Class of committed instruction
system.cpu1.commit.op_class_0::SimdMultAcc            0      0.00%     62.64% # Class of committed instruction
system.cpu1.commit.op_class_0::SimdShift            0      0.00%     62.64% # Class of committed instruction
system.cpu1.commit.op_class_0::SimdShiftAcc            0      0.00%     62.64% # Class of committed instruction
system.cpu1.commit.op_class_0::SimdDiv              0      0.00%     62.64% # Class of committed instruction
system.cpu1.commit.op_class_0::SimdSqrt             0      0.00%     62.64% # Class of committed instruction
system.cpu1.commit.op_class_0::SimdFloatAdd            0      0.00%     62.64% # Class of committed instruction
system.cpu1.commit.op_class_0::SimdFloatAlu            0      0.00%     62.64% # Class of committed instruction
system.cpu1.commit.op_class_0::SimdFloatCmp            0      0.00%     62.64% # Class of committed instruction
system.cpu1.commit.op_class_0::SimdFloatCvt            0      0.00%     62.64% # Class of committed instruction
system.cpu1.commit.op_class_0::SimdFloatDiv            0      0.00%     62.64% # Class of committed instruction
system.cpu1.commit.op_class_0::SimdFloatMisc            0      0.00%     62.64% # Class of committed instruction
system.cpu1.commit.op_class_0::SimdFloatMult            0      0.00%     62.64% # Class of committed instruction
system.cpu1.commit.op_class_0::SimdFloatMultAcc            0      0.00%     62.64% # Class of committed instruction
system.cpu1.commit.op_class_0::SimdFloatSqrt            0      0.00%     62.64% # Class of committed instruction
system.cpu1.commit.op_class_0::SimdReduceAdd            0      0.00%     62.64% # Class of committed instruction
system.cpu1.commit.op_class_0::SimdReduceAlu            0      0.00%     62.64% # Class of committed instruction
system.cpu1.commit.op_class_0::SimdReduceCmp            0      0.00%     62.64% # Class of committed instruction
system.cpu1.commit.op_class_0::SimdFloatReduceAdd            0      0.00%     62.64% # Class of committed instruction
system.cpu1.commit.op_class_0::SimdFloatReduceCmp            0      0.00%     62.64% # Class of committed instruction
system.cpu1.commit.op_class_0::SimdAes              0      0.00%     62.64% # Class of committed instruction
system.cpu1.commit.op_class_0::SimdAesMix            0      0.00%     62.64% # Class of committed instruction
system.cpu1.commit.op_class_0::SimdSha1Hash            0      0.00%     62.64% # Class of committed instruction
system.cpu1.commit.op_class_0::SimdSha1Hash2            0      0.00%     62.64% # Class of committed instruction
system.cpu1.commit.op_class_0::SimdSha256Hash            0      0.00%     62.64% # Class of committed instruction
system.cpu1.commit.op_class_0::SimdSha256Hash2            0      0.00%     62.64% # Class of committed instruction
system.cpu1.commit.op_class_0::SimdShaSigma2            0      0.00%     62.64% # Class of committed instruction
system.cpu1.commit.op_class_0::SimdShaSigma3            0      0.00%     62.64% # Class of committed instruction
system.cpu1.commit.op_class_0::SimdPredAlu            0      0.00%     62.64% # Class of committed instruction
system.cpu1.commit.op_class_0::MemRead       17935031     31.53%     94.17% # Class of committed instruction
system.cpu1.commit.op_class_0::MemWrite       3314905      5.83%    100.00% # Class of committed instruction
system.cpu1.commit.op_class_0::FloatMemRead            0      0.00%    100.00% # Class of committed instruction
system.cpu1.commit.op_class_0::FloatMemWrite           12      0.00%    100.00% # Class of committed instruction
system.cpu1.commit.op_class_0::IprAccess            0      0.00%    100.00% # Class of committed instruction
system.cpu1.commit.op_class_0::InstPrefetch            0      0.00%    100.00% # Class of committed instruction
system.cpu1.commit.op_class_0::total         56875142                       # Class of committed instruction
system.cpu1.commit.refs                      21249948                       # Number of memory references committed
system.cpu1.commit.swp_count                        0                       # Number of s/w prefetches committed
system.cpu1.commit.vec_insts                        0                       # Number of committed Vector instructions.
system.cpu1.committedInsts                   55063765                       # Number of Instructions Simulated
system.cpu1.committedOps                     56875142                       # Number of Ops (including micro ops) Simulated
system.cpu1.cpi                              5.988377                       # CPI: Cycles Per Instruction
system.cpu1.cpi_total                        5.988377                       # CPI: Total CPI of All Threads
system.cpu1.decode.BlockedCycles            281655032                       # Number of cycles decode is blocked
system.cpu1.decode.BranchMispred               826157                       # Number of times decode detected a branch misprediction
system.cpu1.decode.BranchResolved             8685569                       # Number of times decode resolved a branch
system.cpu1.decode.DecodedInsts              87030749                       # Number of instructions handled by decode
system.cpu1.decode.IdleCycles                13564176                       # Number of cycles decode is idle
system.cpu1.decode.RunCycles                 28697631                       # Number of cycles decode is running
system.cpu1.decode.SquashCycles               1155505                       # Number of cycles decode is squashing
system.cpu1.decode.SquashedInsts              1182578                       # Number of squashed instructions handled by decode
system.cpu1.decode.UnblockCycles              4356259                       # Number of cycles decode is unblocking
system.cpu1.dtb.accesses                            0                       # DTB accesses
system.cpu1.dtb.hits                                0                       # DTB hits
system.cpu1.dtb.misses                              0                       # DTB misses
system.cpu1.dtb.read_accesses                       0                       # DTB read accesses
system.cpu1.dtb.read_hits                           0                       # DTB read hits
system.cpu1.dtb.read_misses                         0                       # DTB read misses
system.cpu1.dtb.write_accesses                      0                       # DTB write accesses
system.cpu1.dtb.write_hits                          0                       # DTB write hits
system.cpu1.dtb.write_misses                        0                       # DTB write misses
system.cpu1.fetch.Branches                   20867583                       # Number of branches that fetch encountered
system.cpu1.fetch.CacheLines                 13179555                       # Number of cache lines fetched
system.cpu1.fetch.Cycles                    312870909                       # Number of cycles fetch has run and was not squashing or blocked
system.cpu1.fetch.IcacheSquashes                94806                       # Number of outstanding Icache misses that were squashed
system.cpu1.fetch.IcacheWaitRetryStallCycles           11                       # Number of stall cycles due to full MSHR
system.cpu1.fetch.Insts                     101853975                       # Number of instructions fetch has processed
system.cpu1.fetch.MiscStallCycles                   4                       # Number of cycles fetch has spent waiting on interrupts, or bad addresses, or out of MSHRs
system.cpu1.fetch.PendingTrapStallCycles           15                       # Number of stall cycles due to pending traps
system.cpu1.fetch.SquashCycles                3950804                       # Number of cycles fetch has spent squashing
system.cpu1.fetch.branchRate                 0.063284                       # Number of branch fetches per cycle
system.cpu1.fetch.icacheStallCycles          14582262                       # Number of cycles fetch is stalled on an Icache miss
system.cpu1.fetch.predictedBranches          10012139                       # Number of branches that fetch has predicted taken
system.cpu1.fetch.rate                       0.308889                       # Number of inst fetches per cycle
system.cpu1.fetch.rateDist::samples         329428603                       # Number of instructions fetched each cycle (Total)
system.cpu1.fetch.rateDist::mean             0.321220                       # Number of instructions fetched each cycle (Total)
system.cpu1.fetch.rateDist::stdev            0.832163                       # Number of instructions fetched each cycle (Total)
system.cpu1.fetch.rateDist::underflows              0      0.00%      0.00% # Number of instructions fetched each cycle (Total)
system.cpu1.fetch.rateDist::0               269802085     81.90%     81.90% # Number of instructions fetched each cycle (Total)
system.cpu1.fetch.rateDist::1                32798973      9.96%     91.86% # Number of instructions fetched each cycle (Total)
system.cpu1.fetch.rateDist::2                15744320      4.78%     96.64% # Number of instructions fetched each cycle (Total)
system.cpu1.fetch.rateDist::3                 6494062      1.97%     98.61% # Number of instructions fetched each cycle (Total)
system.cpu1.fetch.rateDist::4                 1501882      0.46%     99.06% # Number of instructions fetched each cycle (Total)
system.cpu1.fetch.rateDist::5                 2492060      0.76%     99.82% # Number of instructions fetched each cycle (Total)
system.cpu1.fetch.rateDist::6                  588294      0.18%    100.00% # Number of instructions fetched each cycle (Total)
system.cpu1.fetch.rateDist::7                    3837      0.00%    100.00% # Number of instructions fetched each cycle (Total)
system.cpu1.fetch.rateDist::8                    3090      0.00%    100.00% # Number of instructions fetched each cycle (Total)
system.cpu1.fetch.rateDist::overflows               0      0.00%    100.00% # Number of instructions fetched each cycle (Total)
system.cpu1.fetch.rateDist::min_value               0                       # Number of instructions fetched each cycle (Total)
system.cpu1.fetch.rateDist::max_value               8                       # Number of instructions fetched each cycle (Total)
system.cpu1.fetch.rateDist::total           329428603                       # Number of instructions fetched each cycle (Total)
system.cpu1.fp_regfile_reads                       12                       # number of floating regfile reads
system.cpu1.idleCycles                         313979                       # Total number of cycles that the CPU has spent unscheduled due to idling
system.cpu1.iew.branchMispredicts             1214562                       # Number of branch mispredicts detected at execute
system.cpu1.iew.exec_branches                14693931                       # Number of branches executed
system.cpu1.iew.exec_nop                            0                       # number of nop insts executed
system.cpu1.iew.exec_rate                    0.195231                       # Inst execution rate
system.cpu1.iew.exec_refs                    22468619                       # number of memory reference insts executed
system.cpu1.iew.exec_stores                   5215360                       # Number of stores executed
system.cpu1.iew.exec_swp                            0                       # number of swp insts executed
system.cpu1.iew.iewBlockCycles              245235363                       # Number of cycles IEW is blocking
system.cpu1.iew.iewDispLoadInsts             22542899                       # Number of dispatched load instructions
system.cpu1.iew.iewDispNonSpecInsts           2712398                       # Number of dispatched non-speculative instructions
system.cpu1.iew.iewDispSquashedInsts          1720224                       # Number of squashed instructions skipped by dispatch
system.cpu1.iew.iewDispStoreInsts             7088835                       # Number of dispatched store instructions
system.cpu1.iew.iewDispatchedInsts           79109939                       # Number of instructions dispatched to IQ
system.cpu1.iew.iewExecLoadInsts             17253259                       # Number of load instructions executed
system.cpu1.iew.iewExecSquashedInsts           900914                       # Number of squashed instructions skipped in execute
system.cpu1.iew.iewExecutedInsts             64375977                       # Number of executed instructions
system.cpu1.iew.iewIQFullEvents               1694816                       # Number of times the IQ has become full, causing a stall
system.cpu1.iew.iewIdleCycles                       0                       # Number of cycles IEW is idle
system.cpu1.iew.iewLSQFullEvents              1725217                       # Number of times the LSQ has become full, causing a stall
system.cpu1.iew.iewSquashCycles               1155505                       # Number of cycles IEW is squashing
system.cpu1.iew.iewUnblockCycles              5425146                       # Number of cycles IEW is unblocking
system.cpu1.iew.lsq.thread0.blockedLoads            0                       # Number of blocked loads due to partial load-store forwarding
system.cpu1.iew.lsq.thread0.cacheBlocked        18104                       # Number of times an access to memory failed due to the cache being blocked
system.cpu1.iew.lsq.thread0.forwLoads          305282                       # Number of loads that had data forwarded from stores
system.cpu1.iew.lsq.thread0.ignoredResponses         7402                       # Number of memory responses ignored because the instruction is squashed
system.cpu1.iew.lsq.thread0.invAddrLoads            0                       # Number of loads ignored due to an invalid address
system.cpu1.iew.lsq.thread0.invAddrSwpfs            0                       # Number of software prefetches ignored due to an invalid address
system.cpu1.iew.lsq.thread0.memOrderViolation          503                       # Number of memory ordering violations
system.cpu1.iew.lsq.thread0.rescheduledLoads         2051                       # Number of loads that were rescheduled
system.cpu1.iew.lsq.thread0.squashedLoads      6419066                       # Number of loads squashed
system.cpu1.iew.lsq.thread0.squashedStores      1962720                       # Number of stores squashed
system.cpu1.iew.memOrderViolationEvents           503                       # Number of memory order violations
system.cpu1.iew.predictedNotTakenIncorrect       202896                       # Number of branches that were predicted not taken incorrectly
system.cpu1.iew.predictedTakenIncorrect       1011666                       # Number of branches that were predicted taken incorrectly
system.cpu1.iew.wb_consumers                 36381955                       # num instructions consuming a value
system.cpu1.iew.wb_count                     63991077                       # cumulative count of insts written-back
system.cpu1.iew.wb_fanout                    0.859640                       # average fanout of values written-back
system.cpu1.iew.wb_producers                 31275377                       # num instructions producing a value
system.cpu1.iew.wb_rate                      0.194064                       # insts written-back per cycle
system.cpu1.iew.wb_sent                      64008691                       # cumulative count of insts sent to commit
system.cpu1.int_regfile_reads                80418170                       # number of integer regfile reads
system.cpu1.int_regfile_writes               42567209                       # number of integer regfile writes
system.cpu1.ipc                              0.166990                       # IPC: Instructions Per Cycle
system.cpu1.ipc_total                        0.166990                       # IPC: Total IPC of All Threads
system.cpu1.iq.FU_type_0::No_OpClass          3622625      5.55%      5.55% # Type of FU issued
system.cpu1.iq.FU_type_0::IntAlu             39025320     59.78%     65.33% # Type of FU issued
system.cpu1.iq.FU_type_0::IntMult                  45      0.00%     65.33% # Type of FU issued
system.cpu1.iq.FU_type_0::IntDiv                   86      0.00%     65.33% # Type of FU issued
system.cpu1.iq.FU_type_0::FloatAdd                  0      0.00%     65.33% # Type of FU issued
system.cpu1.iq.FU_type_0::FloatCmp                  0      0.00%     65.33% # Type of FU issued
system.cpu1.iq.FU_type_0::FloatCvt                  0      0.00%     65.33% # Type of FU issued
system.cpu1.iq.FU_type_0::FloatMult                 0      0.00%     65.33% # Type of FU issued
system.cpu1.iq.FU_type_0::FloatMultAcc              0      0.00%     65.33% # Type of FU issued
system.cpu1.iq.FU_type_0::FloatDiv                  0      0.00%     65.33% # Type of FU issued
system.cpu1.iq.FU_type_0::FloatMisc                 0      0.00%     65.33% # Type of FU issued
system.cpu1.iq.FU_type_0::FloatSqrt                 0      0.00%     65.33% # Type of FU issued
system.cpu1.iq.FU_type_0::SimdAdd                   0      0.00%     65.33% # Type of FU issued
system.cpu1.iq.FU_type_0::SimdAddAcc                0      0.00%     65.33% # Type of FU issued
system.cpu1.iq.FU_type_0::SimdAlu                   0      0.00%     65.33% # Type of FU issued
system.cpu1.iq.FU_type_0::SimdCmp                   0      0.00%     65.33% # Type of FU issued
system.cpu1.iq.FU_type_0::SimdCvt                   0      0.00%     65.33% # Type of FU issued
system.cpu1.iq.FU_type_0::SimdMisc                  0      0.00%     65.33% # Type of FU issued
system.cpu1.iq.FU_type_0::SimdMult                  0      0.00%     65.33% # Type of FU issued
system.cpu1.iq.FU_type_0::SimdMultAcc               0      0.00%     65.33% # Type of FU issued
system.cpu1.iq.FU_type_0::SimdShift                 0      0.00%     65.33% # Type of FU issued
system.cpu1.iq.FU_type_0::SimdShiftAcc              0      0.00%     65.33% # Type of FU issued
system.cpu1.iq.FU_type_0::SimdDiv                   0      0.00%     65.33% # Type of FU issued
system.cpu1.iq.FU_type_0::SimdSqrt                  0      0.00%     65.33% # Type of FU issued
system.cpu1.iq.FU_type_0::SimdFloatAdd              0      0.00%     65.33% # Type of FU issued
system.cpu1.iq.FU_type_0::SimdFloatAlu              0      0.00%     65.33% # Type of FU issued
system.cpu1.iq.FU_type_0::SimdFloatCmp              0      0.00%     65.33% # Type of FU issued
system.cpu1.iq.FU_type_0::SimdFloatCvt              0      0.00%     65.33% # Type of FU issued
system.cpu1.iq.FU_type_0::SimdFloatDiv              0      0.00%     65.33% # Type of FU issued
system.cpu1.iq.FU_type_0::SimdFloatMisc             0      0.00%     65.33% # Type of FU issued
system.cpu1.iq.FU_type_0::SimdFloatMult             0      0.00%     65.33% # Type of FU issued
system.cpu1.iq.FU_type_0::SimdFloatMultAcc            0      0.00%     65.33% # Type of FU issued
system.cpu1.iq.FU_type_0::SimdFloatSqrt             0      0.00%     65.33% # Type of FU issued
system.cpu1.iq.FU_type_0::SimdReduceAdd             0      0.00%     65.33% # Type of FU issued
system.cpu1.iq.FU_type_0::SimdReduceAlu             0      0.00%     65.33% # Type of FU issued
system.cpu1.iq.FU_type_0::SimdReduceCmp             0      0.00%     65.33% # Type of FU issued
system.cpu1.iq.FU_type_0::SimdFloatReduceAdd            0      0.00%     65.33% # Type of FU issued
system.cpu1.iq.FU_type_0::SimdFloatReduceCmp            0      0.00%     65.33% # Type of FU issued
system.cpu1.iq.FU_type_0::SimdAes                   0      0.00%     65.33% # Type of FU issued
system.cpu1.iq.FU_type_0::SimdAesMix                0      0.00%     65.33% # Type of FU issued
system.cpu1.iq.FU_type_0::SimdSha1Hash              0      0.00%     65.33% # Type of FU issued
system.cpu1.iq.FU_type_0::SimdSha1Hash2             0      0.00%     65.33% # Type of FU issued
system.cpu1.iq.FU_type_0::SimdSha256Hash            0      0.00%     65.33% # Type of FU issued
system.cpu1.iq.FU_type_0::SimdSha256Hash2            0      0.00%     65.33% # Type of FU issued
system.cpu1.iq.FU_type_0::SimdShaSigma2             0      0.00%     65.33% # Type of FU issued
system.cpu1.iq.FU_type_0::SimdShaSigma3             0      0.00%     65.33% # Type of FU issued
system.cpu1.iq.FU_type_0::SimdPredAlu               0      0.00%     65.33% # Type of FU issued
system.cpu1.iq.FU_type_0::MemRead            19213113     29.43%     94.77% # Type of FU issued
system.cpu1.iq.FU_type_0::MemWrite            3415690      5.23%    100.00% # Type of FU issued
system.cpu1.iq.FU_type_0::FloatMemRead              0      0.00%    100.00% # Type of FU issued
system.cpu1.iq.FU_type_0::FloatMemWrite            12      0.00%    100.00% # Type of FU issued
system.cpu1.iq.FU_type_0::IprAccess                 0      0.00%    100.00% # Type of FU issued
system.cpu1.iq.FU_type_0::InstPrefetch              0      0.00%    100.00% # Type of FU issued
system.cpu1.iq.FU_type_0::total              65276891                       # Type of FU issued
system.cpu1.iq.fp_alu_accesses                     14                       # Number of floating point alu accesses
system.cpu1.iq.fp_inst_queue_reads                 26                       # Number of floating instruction queue reads
system.cpu1.iq.fp_inst_queue_wakeup_accesses           12                       # Number of floating instruction queue wakeup accesses
system.cpu1.iq.fp_inst_queue_writes                12                       # Number of floating instruction queue writes
system.cpu1.iq.fu_busy_cnt                    1906101                       # FU busy when requested
system.cpu1.iq.fu_busy_rate                  0.029200                       # FU busy rate (busy events/executed inst)
system.cpu1.iq.fu_full::No_OpClass                  0      0.00%      0.00% # attempts to use FU when none available
system.cpu1.iq.fu_full::IntAlu                 316261     16.59%     16.59% # attempts to use FU when none available
system.cpu1.iq.fu_full::IntMult                     0      0.00%     16.59% # attempts to use FU when none available
system.cpu1.iq.fu_full::IntDiv                      0      0.00%     16.59% # attempts to use FU when none available
system.cpu1.iq.fu_full::FloatAdd                    0      0.00%     16.59% # attempts to use FU when none available
system.cpu1.iq.fu_full::FloatCmp                    0      0.00%     16.59% # attempts to use FU when none available
system.cpu1.iq.fu_full::FloatCvt                    0      0.00%     16.59% # attempts to use FU when none available
system.cpu1.iq.fu_full::FloatMult                   0      0.00%     16.59% # attempts to use FU when none available
system.cpu1.iq.fu_full::FloatMultAcc                0      0.00%     16.59% # attempts to use FU when none available
system.cpu1.iq.fu_full::FloatDiv                    0      0.00%     16.59% # attempts to use FU when none available
system.cpu1.iq.fu_full::FloatMisc                   0      0.00%     16.59% # attempts to use FU when none available
system.cpu1.iq.fu_full::FloatSqrt                   0      0.00%     16.59% # attempts to use FU when none available
system.cpu1.iq.fu_full::SimdAdd                     0      0.00%     16.59% # attempts to use FU when none available
system.cpu1.iq.fu_full::SimdAddAcc                  0      0.00%     16.59% # attempts to use FU when none available
system.cpu1.iq.fu_full::SimdAlu                     0      0.00%     16.59% # attempts to use FU when none available
system.cpu1.iq.fu_full::SimdCmp                     0      0.00%     16.59% # attempts to use FU when none available
system.cpu1.iq.fu_full::SimdCvt                     0      0.00%     16.59% # attempts to use FU when none available
system.cpu1.iq.fu_full::SimdMisc                    0      0.00%     16.59% # attempts to use FU when none available
system.cpu1.iq.fu_full::SimdMult                    0      0.00%     16.59% # attempts to use FU when none available
system.cpu1.iq.fu_full::SimdMultAcc                 0      0.00%     16.59% # attempts to use FU when none available
system.cpu1.iq.fu_full::SimdShift                   0      0.00%     16.59% # attempts to use FU when none available
system.cpu1.iq.fu_full::SimdShiftAcc                0      0.00%     16.59% # attempts to use FU when none available
system.cpu1.iq.fu_full::SimdDiv                     0      0.00%     16.59% # attempts to use FU when none available
system.cpu1.iq.fu_full::SimdSqrt                    0      0.00%     16.59% # attempts to use FU when none available
system.cpu1.iq.fu_full::SimdFloatAdd                0      0.00%     16.59% # attempts to use FU when none available
system.cpu1.iq.fu_full::SimdFloatAlu                0      0.00%     16.59% # attempts to use FU when none available
system.cpu1.iq.fu_full::SimdFloatCmp                0      0.00%     16.59% # attempts to use FU when none available
system.cpu1.iq.fu_full::SimdFloatCvt                0      0.00%     16.59% # attempts to use FU when none available
system.cpu1.iq.fu_full::SimdFloatDiv                0      0.00%     16.59% # attempts to use FU when none available
system.cpu1.iq.fu_full::SimdFloatMisc               0      0.00%     16.59% # attempts to use FU when none available
system.cpu1.iq.fu_full::SimdFloatMult               0      0.00%     16.59% # attempts to use FU when none available
system.cpu1.iq.fu_full::SimdFloatMultAcc            0      0.00%     16.59% # attempts to use FU when none available
system.cpu1.iq.fu_full::SimdFloatSqrt               0      0.00%     16.59% # attempts to use FU when none available
system.cpu1.iq.fu_full::SimdReduceAdd               0      0.00%     16.59% # attempts to use FU when none available
system.cpu1.iq.fu_full::SimdReduceAlu               0      0.00%     16.59% # attempts to use FU when none available
system.cpu1.iq.fu_full::SimdReduceCmp               0      0.00%     16.59% # attempts to use FU when none available
system.cpu1.iq.fu_full::SimdFloatReduceAdd            0      0.00%     16.59% # attempts to use FU when none available
system.cpu1.iq.fu_full::SimdFloatReduceCmp            0      0.00%     16.59% # attempts to use FU when none available
system.cpu1.iq.fu_full::SimdAes                     0      0.00%     16.59% # attempts to use FU when none available
system.cpu1.iq.fu_full::SimdAesMix                  0      0.00%     16.59% # attempts to use FU when none available
system.cpu1.iq.fu_full::SimdSha1Hash                0      0.00%     16.59% # attempts to use FU when none available
system.cpu1.iq.fu_full::SimdSha1Hash2               0      0.00%     16.59% # attempts to use FU when none available
system.cpu1.iq.fu_full::SimdSha256Hash              0      0.00%     16.59% # attempts to use FU when none available
system.cpu1.iq.fu_full::SimdSha256Hash2             0      0.00%     16.59% # attempts to use FU when none available
system.cpu1.iq.fu_full::SimdShaSigma2               0      0.00%     16.59% # attempts to use FU when none available
system.cpu1.iq.fu_full::SimdShaSigma3               0      0.00%     16.59% # attempts to use FU when none available
system.cpu1.iq.fu_full::SimdPredAlu                 0      0.00%     16.59% # attempts to use FU when none available
[...]
system.cpu1.dcache.WriteReq_hits::.cpu1.data       387596                       # number of WriteReq hits
system.cpu1.dcache.WriteReq_hits::total        387596                       # number of WriteReq hits
system.cpu1.dcache.WriteReq_misses::.cpu1.data       380515                       # number of WriteReq misses
system.cpu1.dcache.WriteReq_misses::total       380515                       # number of WriteReq misses
system.cpu1.dcache.WriteReq_miss_latency::.cpu1.data  24185845497                       # number of WriteReq miss cycles
system.cpu1.dcache.WriteReq_miss_latency::total  24185845497                       # number of WriteReq miss cycles
system.cpu1.dcache.WriteReq_accesses::.cpu1.data       768111                       # number of WriteReq accesses(hits+misses)
system.cpu1.dcache.WriteReq_accesses::total       768111                       # number of WriteReq accesses(hits+misses)
system.cpu1.dcache.WriteReq_miss_rate::.cpu1.data     0.495391                       # miss rate for WriteReq accesses
system.cpu1.dcache.WriteReq_miss_rate::total     0.495391                       # miss rate for WriteReq accesses
system.cpu1.dcache.WriteReq_avg_miss_latency::.cpu1.data 63560.820196                       # average WriteReq miss latency
system.cpu1.dcache.WriteReq_avg_miss_latency::total 63560.820196                       # average WriteReq miss latency
system.cpu1.dcache.WriteReq_mshr_hits::.cpu1.data       340822                       # number of WriteReq MSHR hits
system.cpu1.dcache.WriteReq_mshr_hits::total       340822                       # number of WriteReq MSHR hits
system.cpu1.dcache.WriteReq_mshr_misses::.cpu1.data        39693                       # number of WriteReq MSHR misses
system.cpu1.dcache.WriteReq_mshr_misses::total        39693                       # number of WriteReq MSHR misses
system.cpu1.dcache.WriteReq_mshr_miss_latency::.cpu1.data   2295972998                       # number of WriteReq MSHR miss cycles
system.cpu1.dcache.WriteReq_mshr_miss_latency::total   2295972998                       # number of WriteReq MSHR miss cycles
system.cpu1.dcache.WriteReq_mshr_miss_rate::.cpu1.data     0.051676                       # mshr miss rate for WriteReq accesses
system.cpu1.dcache.WriteReq_mshr_miss_rate::total     0.051676                       # mshr miss rate for WriteReq accesses
system.cpu1.dcache.WriteReq_avg_mshr_miss_latency::.cpu1.data 57843.272063                       # average WriteReq mshr miss latency
system.cpu1.dcache.WriteReq_avg_mshr_miss_latency::total 57843.272063                       # average WriteReq mshr miss latency
system.cpu1.dcache.LoadLockedReq_hits::.cpu1.data       583500                       # number of LoadLockedReq hits
system.cpu1.dcache.LoadLockedReq_hits::total       583500                       # number of LoadLockedReq hits
system.cpu1.dcache.LoadLockedReq_misses::.cpu1.data         8167                       # number of LoadLockedReq misses
system.cpu1.dcache.LoadLockedReq_misses::total         8167                       # number of LoadLockedReq misses
system.cpu1.dcache.LoadLockedReq_miss_latency::.cpu1.data    211048000                       # number of LoadLockedReq miss cycles
system.cpu1.dcache.LoadLockedReq_miss_latency::total    211048000                       # number of LoadLockedReq miss cycles
system.cpu1.dcache.LoadLockedReq_accesses::.cpu1.data       591667                       # number of LoadLockedReq accesses(hits+misses)
system.cpu1.dcache.LoadLockedReq_accesses::total       591667                       # number of LoadLockedReq accesses(hits+misses)
system.cpu1.dcache.LoadLockedReq_miss_rate::.cpu1.data     0.013803                       # miss rate for LoadLockedReq accesses
system.cpu1.dcache.LoadLockedReq_miss_rate::total     0.013803                       # miss rate for LoadLockedReq accesses
system.cpu1.dcache.LoadLockedReq_avg_miss_latency::.cpu1.data 25841.557487                       # average LoadLockedReq miss latency
system.cpu1.dcache.LoadLockedReq_avg_miss_latency::total 25841.557487                       # average LoadLockedReq miss latency
system.cpu1.dcache.LoadLockedReq_mshr_hits::.cpu1.data          101                       # number of LoadLockedReq MSHR hits
system.cpu1.dcache.LoadLockedReq_mshr_hits::total          101                       # number of LoadLockedReq MSHR hits
system.cpu1.dcache.LoadLockedReq_mshr_misses::.cpu1.data         8066                       # number of LoadLockedReq MSHR misses
system.cpu1.dcache.LoadLockedReq_mshr_misses::total         8066                       # number of LoadLockedReq MSHR misses
system.cpu1.dcache.LoadLockedReq_mshr_miss_latency::.cpu1.data    194330000                       # number of LoadLockedReq MSHR miss cycles
system.cpu1.dcache.LoadLockedReq_mshr_miss_latency::total    194330000                       # number of LoadLockedReq MSHR miss cycles
system.cpu1.dcache.LoadLockedReq_mshr_miss_rate::.cpu1.data     0.013633                       # mshr miss rate for LoadLockedReq accesses
system.cpu1.dcache.LoadLockedReq_mshr_miss_rate::total     0.013633                       # mshr miss rate for LoadLockedReq accesses
system.cpu1.dcache.LoadLockedReq_avg_mshr_miss_latency::.cpu1.data 24092.486982                       # average LoadLockedReq mshr miss latency
system.cpu1.dcache.LoadLockedReq_avg_mshr_miss_latency::total 24092.486982                       # average LoadLockedReq mshr miss latency
system.cpu1.dcache.StoreCondReq_hits::.cpu1.data       591135                       # number of StoreCondReq hits
system.cpu1.dcache.StoreCondReq_hits::total       591135                       # number of StoreCondReq hits
system.cpu1.dcache.StoreCondReq_misses::.cpu1.data          361                       # number of StoreCondReq misses
system.cpu1.dcache.StoreCondReq_misses::total          361                       # number of StoreCondReq misses
system.cpu1.dcache.StoreCondReq_miss_latency::.cpu1.data      3047500                       # number of StoreCondReq miss cycles
system.cpu1.dcache.StoreCondReq_miss_latency::total      3047500                       # number of StoreCondReq miss cycles
system.cpu1.dcache.StoreCondReq_accesses::.cpu1.data       591496                       # number of StoreCondReq accesses(hits+misses)
system.cpu1.dcache.StoreCondReq_accesses::total       591496                       # number of StoreCondReq accesses(hits+misses)
system.cpu1.dcache.StoreCondReq_miss_rate::.cpu1.data     0.000610                       # miss rate for StoreCondReq accesses
system.cpu1.dcache.StoreCondReq_miss_rate::total     0.000610                       # miss rate for StoreCondReq accesses
system.cpu1.dcache.StoreCondReq_avg_miss_latency::.cpu1.data  8441.828255                       # average StoreCondReq miss latency
system.cpu1.dcache.StoreCondReq_avg_miss_latency::total  8441.828255                       # average StoreCondReq miss latency
system.cpu1.dcache.StoreCondReq_mshr_misses::.cpu1.data          361                       # number of StoreCondReq MSHR misses
system.cpu1.dcache.StoreCondReq_mshr_misses::total          361                       # number of StoreCondReq MSHR misses
system.cpu1.dcache.StoreCondReq_mshr_miss_latency::.cpu1.data      2688500                       # number of StoreCondReq MSHR miss cycles
system.cpu1.dcache.StoreCondReq_mshr_miss_latency::total      2688500                       # number of StoreCondReq MSHR miss cycles
system.cpu1.dcache.StoreCondReq_mshr_miss_rate::.cpu1.data     0.000610                       # mshr miss rate for StoreCondReq accesses
system.cpu1.dcache.StoreCondReq_mshr_miss_rate::total     0.000610                       # mshr miss rate for StoreCondReq accesses
system.cpu1.dcache.StoreCondReq_avg_mshr_miss_latency::.cpu1.data  7447.368421                       # average StoreCondReq mshr miss latency
system.cpu1.dcache.StoreCondReq_avg_mshr_miss_latency::total  7447.368421                       # average StoreCondReq mshr miss latency
system.cpu1.dcache.StoreCondFailReq_miss_latency::.cpu1.data        67000                       # number of StoreCondFailReq miss cycles
system.cpu1.dcache.StoreCondFailReq_miss_latency::total        67000                       # number of StoreCondFailReq miss cycles
system.cpu1.dcache.StoreCondFailReq_avg_miss_latency::.cpu1.data          inf                       # average StoreCondFailReq miss latency
system.cpu1.dcache.StoreCondFailReq_avg_miss_latency::total          inf                       # average StoreCondFailReq miss latency
system.cpu1.dcache.StoreCondFailReq_mshr_miss_latency::.cpu1.data        65000                       # number of StoreCondFailReq MSHR miss cycles
system.cpu1.dcache.StoreCondFailReq_mshr_miss_latency::total        65000                       # number of StoreCondFailReq MSHR miss cycles
system.cpu1.dcache.StoreCondFailReq_avg_mshr_miss_latency::.cpu1.data          inf                       # average StoreCondFailReq mshr miss latency
system.cpu1.dcache.StoreCondFailReq_avg_mshr_miss_latency::total          inf                       # average StoreCondFailReq mshr miss latency
system.cpu1.dcache.SwapReq_hits::.cpu1.data          516                       # number of SwapReq hits
system.cpu1.dcache.SwapReq_hits::total            516                       # number of SwapReq hits
system.cpu1.dcache.SwapReq_misses::.cpu1.data          526                       # number of SwapReq misses
system.cpu1.dcache.SwapReq_misses::total          526                       # number of SwapReq misses
system.cpu1.dcache.SwapReq_miss_latency::.cpu1.data      6914500                       # number of SwapReq miss cycles
system.cpu1.dcache.SwapReq_miss_latency::total      6914500                       # number of SwapReq miss cycles
system.cpu1.dcache.SwapReq_accesses::.cpu1.data         1042                       # number of SwapReq accesses(hits+misses)
system.cpu1.dcache.SwapReq_accesses::total         1042                       # number of SwapReq accesses(hits+misses)
system.cpu1.dcache.SwapReq_miss_rate::.cpu1.data     0.504798                       # miss rate for SwapReq accesses
system.cpu1.dcache.SwapReq_miss_rate::total     0.504798                       # miss rate for SwapReq accesses
system.cpu1.dcache.SwapReq_avg_miss_latency::.cpu1.data 13145.437262                       # average SwapReq miss latency
system.cpu1.dcache.SwapReq_avg_miss_latency::total 13145.437262                       # average SwapReq miss latency
system.cpu1.dcache.SwapReq_mshr_misses::.cpu1.data          526                       # number of SwapReq MSHR misses
system.cpu1.dcache.SwapReq_mshr_misses::total          526                       # number of SwapReq MSHR misses
system.cpu1.dcache.SwapReq_mshr_miss_latency::.cpu1.data      6388500                       # number of SwapReq MSHR miss cycles
system.cpu1.dcache.SwapReq_mshr_miss_latency::total      6388500                       # number of SwapReq MSHR miss cycles
system.cpu1.dcache.SwapReq_mshr_miss_rate::.cpu1.data     0.504798                       # mshr miss rate for SwapReq accesses
system.cpu1.dcache.SwapReq_mshr_miss_rate::total     0.504798                       # mshr miss rate for SwapReq accesses
system.cpu1.dcache.SwapReq_avg_mshr_miss_latency::.cpu1.data 12145.437262                       # average SwapReq mshr miss latency
system.cpu1.dcache.SwapReq_avg_mshr_miss_latency::total 12145.437262                       # average SwapReq mshr miss latency
system.cpu1.dcache.tags.pwrStateResidencyTicks::UNDEFINED 114438989500                       # Cumulative time (in ticks) in various power states
system.cpu1.dcache.tags.tagsinuse           31.800776                       # Cycle average of tags in use
system.cpu1.dcache.tags.total_refs           18451608                       # Total number of references to valid blocks.
system.cpu1.dcache.tags.sampled_refs          1165796                       # Sample count of references to valid blocks.
system.cpu1.dcache.tags.avg_refs            15.827476                       # Average number of references to valid blocks.
system.cpu1.dcache.tags.warmup_cycle                0                       # Cycle when the warmup percentage was hit.
system.cpu1.dcache.tags.occ_blocks::.cpu1.data    31.800776                       # Average occupied blocks per requestor
system.cpu1.dcache.tags.occ_percent::.cpu1.data     0.993774                       # Average percentage of cache occupancy
system.cpu1.dcache.tags.occ_percent::total     0.993774                       # Average percentage of cache occupancy
system.cpu1.dcache.tags.occ_task_id_blocks::1024           30                       # Occupied blocks per task id
system.cpu1.dcache.tags.age_task_id_blocks_1024::1           30                       # Occupied blocks per task id
system.cpu1.dcache.tags.occ_task_id_percent::1024     0.937500                       # Percentage of cache occupancy per task id
system.cpu1.dcache.tags.tag_accesses         42373408                       # Number of tag accesses
system.cpu1.dcache.tags.data_accesses        42373408                       # Number of data accesses
system.cpu_clk_domain.clock                       500                       # Clock period in ticks
system.tol2bus.pwrStateResidencyTicks::UNDEFINED 114438989500                       # Cumulative time (in ticks) in various power states
system.tol2bus.trans_dist::ReadResp           3216118                       # Transaction distribution
system.tol2bus.trans_dist::WritebackDirty       577112                       # Transaction distribution
system.tol2bus.trans_dist::WritebackClean      2990315                       # Transaction distribution
system.tol2bus.trans_dist::CleanEvict         8293193                       # Transaction distribution
system.tol2bus.trans_dist::HardPFReq          6595623                       # Transaction distribution
system.tol2bus.trans_dist::HardPFResp               2                       # Transaction distribution
system.tol2bus.trans_dist::UpgradeReq            1023                       # Transaction distribution
system.tol2bus.trans_dist::SCUpgradeReq          1368                       # Transaction distribution
system.tol2bus.trans_dist::UpgradeResp           2391                       # Transaction distribution
system.tol2bus.trans_dist::SCUpgradeFailReq            2                       # Transaction distribution
system.tol2bus.trans_dist::UpgradeFailResp            2                       # Transaction distribution
system.tol2bus.trans_dist::ReadExReq            92699                       # Transaction distribution
system.tol2bus.trans_dist::ReadExResp           92699                       # Transaction distribution
system.tol2bus.trans_dist::ReadCleanReq        230414                       # Transaction distribution
system.tol2bus.trans_dist::ReadSharedReq      2985704                       # Transaction distribution
system.tol2bus.trans_dist::InvalidateReq          585                       # Transaction distribution
system.tol2bus.trans_dist::InvalidateResp          585                       # Transaction distribution
system.tol2bus.pkt_count_system.cpu0.icache.mem_side::system.l2.cpu_side       676534                       # Packet count per connected master and slave (bytes)
system.tol2bus.pkt_count_system.cpu0.dcache.mem_side::system.l2.cpu_side      5739777                       # Packet count per connected master and slave (bytes)
system.tol2bus.pkt_count_system.cpu1.icache.mem_side::system.l2.cpu_side        14613                       # Packet count per connected master and slave (bytes)
system.tol2bus.pkt_count_system.cpu1.dcache.mem_side::system.l2.cpu_side      3494794                       # Packet count per connected master and slave (bytes)
system.tol2bus.pkt_count::total               9925718                       # Packet count per connected master and slave (bytes)
system.tol2bus.pkt_size_system.cpu0.icache.mem_side::system.l2.cpu_side     28863424                       # Cumulative packet size per connected master and slave (bytes)
system.tol2bus.pkt_size_system.cpu0.dcache.mem_side::system.l2.cpu_side    244705984                       # Cumulative packet size per connected master and slave (bytes)
system.tol2bus.pkt_size_system.cpu1.icache.mem_side::system.l2.cpu_side       623488                       # Cumulative packet size per connected master and slave (bytes)
system.tol2bus.pkt_size_system.cpu1.dcache.mem_side::system.l2.cpu_side    148997632                       # Cumulative packet size per connected master and slave (bytes)
system.tol2bus.pkt_size::total              423190528                       # Cumulative packet size per connected master and slave (bytes)
system.tol2bus.snoops                        15154119                       # Total snoops (count)
system.tol2bus.snoopTraffic                  16889472                       # Total snoop traffic (bytes)
system.tol2bus.snoop_fanout::samples         18461599                       # Request fanout histogram
system.tol2bus.snoop_fanout::mean            0.145469                       # Request fanout histogram
system.tol2bus.snoop_fanout::stdev           0.369567                       # Request fanout histogram
system.tol2bus.snoop_fanout::underflows             0      0.00%      0.00% # Request fanout histogram
system.tol2bus.snoop_fanout::0               15889283     86.07%     86.07% # Request fanout histogram
system.tol2bus.snoop_fanout::1                2459038     13.32%     99.39% # Request fanout histogram
system.tol2bus.snoop_fanout::2                 113278      0.61%    100.00% # Request fanout histogram
system.tol2bus.snoop_fanout::3                      0      0.00%    100.00% # Request fanout histogram
system.tol2bus.snoop_fanout::4                      0      0.00%    100.00% # Request fanout histogram
system.tol2bus.snoop_fanout::5                      0      0.00%    100.00% # Request fanout histogram
system.tol2bus.snoop_fanout::6                      0      0.00%    100.00% # Request fanout histogram
system.tol2bus.snoop_fanout::7                      0      0.00%    100.00% # Request fanout histogram
system.tol2bus.snoop_fanout::8                      0      0.00%    100.00% # Request fanout histogram
system.tol2bus.snoop_fanout::overflows              0      0.00%    100.00% # Request fanout histogram
system.tol2bus.snoop_fanout::min_value              0                       # Request fanout histogram
system.tol2bus.snoop_fanout::max_value              2                       # Request fanout histogram
system.tol2bus.snoop_fanout::total           18461599                       # Request fanout histogram
system.tol2bus.reqLayer0.occupancy         6615572985                       # Layer occupancy (ticks)
system.tol2bus.reqLayer0.utilization              5.8                       # Layer utilization (%)
system.tol2bus.respLayer1.occupancy        2871571470                       # Layer occupancy (ticks)
system.tol2bus.respLayer1.utilization             2.5                       # Layer utilization (%)
system.tol2bus.respLayer0.occupancy         338395337                       # Layer occupancy (ticks)
system.tol2bus.respLayer0.utilization             0.3                       # Layer utilization (%)
system.tol2bus.respLayer3.occupancy        1750150268                       # Layer occupancy (ticks)
system.tol2bus.respLayer3.utilization             1.5                       # Layer utilization (%)
system.tol2bus.respLayer2.occupancy           7342927                       # Layer occupancy (ticks)
system.tol2bus.respLayer2.utilization             0.0                       # Layer utilization (%)
system.tol2bus.snoopLayer0.occupancy             3001                       # Layer occupancy (ticks)
system.tol2bus.snoopLayer0.utilization            0.0                       # Layer utilization (%)

---------- End Simulation Statistics   ----------
