
---------- Begin Simulation Statistics ----------
final_tick                               532000383500                       # Number of ticks from beginning of simulation (restored from checkpoints and never reset)
host_inst_rate                                  62570                       # Simulator instruction rate (inst/s)
host_mem_usage                                 701052                       # Number of bytes of host memory used
host_op_rate                                    62779                       # Simulator op (including micro ops) rate (op/s)
host_seconds                                  9790.27                       # Real time elapsed on the host
host_tick_rate                               54339721                       # Simulator tick rate (ticks/s)
sim_freq                                 1000000000000                       # Frequency of simulated ticks
sim_insts                                   612580805                       # Number of instructions simulated
sim_ops                                     614618381                       # Number of ops (including micro ops) simulated
sim_seconds                                  0.532000                       # Number of seconds simulated
sim_ticks                                532000383500                       # Number of ticks simulated
system.cpu0.branchPred.BTBCorrect                   0                       # Number of correct BTB predictions (this stat may not work properly.
system.cpu0.branchPred.BTBHitPct            87.516223                       # BTB Hit Percentage
system.cpu0.branchPred.BTBHits               79568534                       # Number of BTB hits
system.cpu0.branchPred.BTBLookups            90918611                       # Number of BTB lookups
system.cpu0.branchPred.RASInCorrect                 0                       # Number of incorrect RAS predictions.
system.cpu0.branchPred.condIncorrect          9280584                       # Number of conditional branches incorrect
system.cpu0.branchPred.condPredicted        122490193                       # Number of conditional branches predicted
system.cpu0.branchPred.indirectHits          10838835                       # Number of indirect target hits.
system.cpu0.branchPred.indirectLookups       11088778                       # Number of indirect predictor lookups.
system.cpu0.branchPred.indirectMisses          249943                       # Number of indirect misses.
system.cpu0.branchPred.lookups              156927926                       # Number of BP lookups
system.cpu0.branchPred.usedRAS                      0                       # Number of times the RAS was used to get a target.
system.cpu0.branchPredindirectMispredicted      1060870                       # Number of mispredicted indirect branches.
system.cpu0.commit.amos                       1018200                       # Number of atomic instructions committed
system.cpu0.commit.branchMispredicts          6061957                       # The number of times a branch was mispredicted
system.cpu0.commit.branches                 143211024                       # Number of branches committed
system.cpu0.commit.bw_lim_events             16365990                       # number cycles where commit BW limit reached
system.cpu0.commit.commitNonSpecStalls        3058450                       # The number of times commit has been forced to stall to communicate backwards
system.cpu0.commit.commitSquashedInsts       37392244                       # The number of squashed insts skipped by commit
system.cpu0.commit.committedInsts           580316368                       # Number of instructions committed
system.cpu0.commit.committedOps             581335842                       # Number of ops (including micro ops) committed
system.cpu0.commit.committed_per_cycle::samples    975616507                       # Number of insts commited each cycle
system.cpu0.commit.committed_per_cycle::mean     0.595865                       # Number of insts commited each cycle
system.cpu0.commit.committed_per_cycle::stdev     1.374124                       # Number of insts commited each cycle
system.cpu0.commit.committed_per_cycle::underflows            0      0.00%      0.00% # Number of insts commited each cycle
system.cpu0.commit.committed_per_cycle::0    699539314     71.70%     71.70% # Number of insts commited each cycle
system.cpu0.commit.committed_per_cycle::1    163184189     16.73%     88.43% # Number of insts commited each cycle
system.cpu0.commit.committed_per_cycle::2     38784850      3.98%     92.40% # Number of insts commited each cycle
system.cpu0.commit.committed_per_cycle::3     36691813      3.76%     96.16% # Number of insts commited each cycle
system.cpu0.commit.committed_per_cycle::4     12262941      1.26%     97.42% # Number of insts commited each cycle
system.cpu0.commit.committed_per_cycle::5      4307888      0.44%     97.86% # Number of insts commited each cycle
system.cpu0.commit.committed_per_cycle::6      2369264      0.24%     98.11% # Number of insts commited each cycle
system.cpu0.commit.committed_per_cycle::7      2110258      0.22%     98.32% # Number of insts commited each cycle
system.cpu0.commit.committed_per_cycle::8     16365990      1.68%    100.00% # Number of insts commited each cycle
system.cpu0.commit.committed_per_cycle::overflows            0      0.00%    100.00% # Number of insts commited each cycle
system.cpu0.commit.committed_per_cycle::min_value            0                       # Number of insts commited each cycle
system.cpu0.commit.committed_per_cycle::max_value            8                       # Number of insts commited each cycle
system.cpu0.commit.committed_per_cycle::total    975616507                       # Number of insts commited each cycle
system.cpu0.commit.fp_insts                        50                       # Number of committed floating point instructions.
system.cpu0.commit.function_calls            11887467                       # Number of function calls committed.
system.cpu0.commit.int_insts                561316165                       # Number of committed integer instructions.
system.cpu0.commit.loads                    179957244                       # Number of loads committed
system.cpu0.commit.membars                    2037566                       # Number of memory barriers committed
system.cpu0.commit.op_class_0::No_OpClass      2037572      0.35%      0.35% # Class of committed instruction
system.cpu0.commit.op_class_0::IntAlu       322246427     55.43%     55.78% # Class of committed instruction
system.cpu0.commit.op_class_0::IntMult        4137068      0.71%     56.49% # Class of committed instruction
system.cpu0.commit.op_class_0::IntDiv         1017773      0.18%     56.67% # Class of committed instruction
system.cpu0.commit.op_class_0::FloatAdd             0      0.00%     56.67% # Class of committed instruction
system.cpu0.commit.op_class_0::FloatCmp             4      0.00%     56.67% # Class of committed instruction
system.cpu0.commit.op_class_0::FloatCvt            12      0.00%     56.67% # Class of committed instruction
system.cpu0.commit.op_class_0::FloatMult            0      0.00%     56.67% # Class of committed instruction
system.cpu0.commit.op_class_0::FloatMultAcc            0      0.00%     56.67% # Class of committed instruction
system.cpu0.commit.op_class_0::FloatDiv             2      0.00%     56.67% # Class of committed instruction
system.cpu0.commit.op_class_0::FloatMisc            4      0.00%     56.67% # Class of committed instruction
system.cpu0.commit.op_class_0::FloatSqrt            0      0.00%     56.67% # Class of committed instruction
system.cpu0.commit.op_class_0::SimdAdd              0      0.00%     56.67% # Class of committed instruction
system.cpu0.commit.op_class_0::SimdAddAcc            0      0.00%     56.67% # Class of committed instruction
system.cpu0.commit.op_class_0::SimdAlu              0      0.00%     56.67% # Class of committed instruction
system.cpu0.commit.op_class_0::SimdCmp              0      0.00%     56.67% # Class of committed instruction
system.cpu0.commit.op_class_0::SimdCvt              0      0.00%     56.67% # Class of committed instruction
system.cpu0.commit.op_class_0::SimdMisc             0      0.00%     56.67% # Class of committed instruction
system.cpu0.commit.op_class_0::SimdMult             0      0.00%     56.67% # Class of committed instruction
system.cpu0.commit.op_class_0::SimdMultAcc            0      0.00%     56.67% # Class of committed instruction
system.cpu0.commit.op_class_0::SimdShift            0      0.00%     56.67% # Class of committed instruction
system.cpu0.commit.op_class_0::SimdShiftAcc            0      0.00%     56.67% # Class of committed instruction
system.cpu0.commit.op_class_0::SimdDiv              0      0.00%     56.67% # Class of committed instruction
system.cpu0.commit.op_class_0::SimdSqrt             0      0.00%     56.67% # Class of committed instruction
system.cpu0.commit.op_class_0::SimdFloatAdd            0      0.00%     56.67% # Class of committed instruction
system.cpu0.commit.op_class_0::SimdFloatAlu            0      0.00%     56.67% # Class of committed instruction
system.cpu0.commit.op_class_0::SimdFloatCmp            0      0.00%     56.67% # Class of committed instruction
system.cpu0.commit.op_class_0::SimdFloatCvt            0      0.00%     56.67% # Class of committed instruction
system.cpu0.commit.op_class_0::SimdFloatDiv            0      0.00%     56.67% # Class of committed instruction
system.cpu0.commit.op_class_0::SimdFloatMisc            0      0.00%     56.67% # Class of committed instruction
system.cpu0.commit.op_class_0::SimdFloatMult            0      0.00%     56.67% # Class of committed instruction
system.cpu0.commit.op_class_0::SimdFloatMultAcc            0      0.00%     56.67% # Class of committed instruction
system.cpu0.commit.op_class_0::SimdFloatSqrt            0      0.00%     56.67% # Class of committed instruction
system.cpu0.commit.op_class_0::SimdReduceAdd            0      0.00%     56.67% # Class of committed instruction
system.cpu0.commit.op_class_0::SimdReduceAlu            0      0.00%     56.67% # Class of committed instruction
system.cpu0.commit.op_class_0::SimdReduceCmp            0      0.00%     56.67% # Class of committed instruction
system.cpu0.commit.op_class_0::SimdFloatReduceAdd            0      0.00%     56.67% # Class of committed instruction
system.cpu0.commit.op_class_0::SimdFloatReduceCmp            0      0.00%     56.67% # Class of committed instruction
system.cpu0.commit.op_class_0::SimdAes              0      0.00%     56.67% # Class of committed instruction
system.cpu0.commit.op_class_0::SimdAesMix            0      0.00%     56.67% # Class of committed instruction
system.cpu0.commit.op_class_0::SimdSha1Hash            0      0.00%     56.67% # Class of committed instruction
system.cpu0.commit.op_class_0::SimdSha1Hash2            0      0.00%     56.67% # Class of committed instruction
system.cpu0.commit.op_class_0::SimdSha256Hash            0      0.00%     56.67% # Class of committed instruction
system.cpu0.commit.op_class_0::SimdSha256Hash2            0      0.00%     56.67% # Class of committed instruction
system.cpu0.commit.op_class_0::SimdShaSigma2            0      0.00%     56.67% # Class of committed instruction
system.cpu0.commit.op_class_0::SimdShaSigma3            0      0.00%     56.67% # Class of committed instruction
system.cpu0.commit.op_class_0::SimdPredAlu            0      0.00%     56.67% # Class of committed instruction
system.cpu0.commit.op_class_0::MemRead      180975436     31.13%     87.80% # Class of committed instruction
system.cpu0.commit.op_class_0::MemWrite      70921516     12.20%    100.00% # Class of committed instruction
system.cpu0.commit.op_class_0::FloatMemRead            8      0.00%    100.00% # Class of committed instruction
system.cpu0.commit.op_class_0::FloatMemWrite           20      0.00%    100.00% # Class of committed instruction
system.cpu0.commit.op_class_0::IprAccess            0      0.00%    100.00% # Class of committed instruction
system.cpu0.commit.op_class_0::InstPrefetch            0      0.00%    100.00% # Class of committed instruction
system.cpu0.commit.op_class_0::total        581335842                       # Class of committed instruction
system.cpu0.commit.refs                     251896980                       # Number of memory references committed
system.cpu0.commit.swp_count                        0                       # Number of s/w prefetches committed
system.cpu0.commit.vec_insts                        0                       # Number of committed Vector instructions.
system.cpu0.committedInsts                  580316368                       # Number of Instructions Simulated
system.cpu0.committedOps                    581335842                       # Number of Ops (including micro ops) Simulated
system.cpu0.cpi                              1.816629                       # CPI: Cycles Per Instruction
system.cpu0.cpi_total                        1.816629                       # CPI: Total CPI of All Threads
system.cpu0.decode.BlockedCycles            192136065                       # Number of cycles decode is blocked
system.cpu0.decode.BranchMispred              3228494                       # Number of times decode detected a branch misprediction
system.cpu0.decode.BranchResolved            78414079                       # Number of times decode resolved a branch
system.cpu0.decode.DecodedInsts             634091422                       # Number of instructions handled by decode
system.cpu0.decode.IdleCycles               353296764                       # Number of cycles decode is idle
system.cpu0.decode.RunCycles                430011622                       # Number of cycles decode is running
system.cpu0.decode.SquashCycles               6066554                       # Number of cycles decode is squashing
system.cpu0.decode.SquashedInsts              8802897                       # Number of squashed instructions handled by decode
system.cpu0.decode.UnblockCycles              3292785                       # Number of cycles decode is unblocking
system.cpu0.dtb.accesses                            0                       # DTB accesses
system.cpu0.dtb.hits                                0                       # DTB hits
system.cpu0.dtb.misses                              0                       # DTB misses
system.cpu0.dtb.read_accesses                       0                       # DTB read accesses
system.cpu0.dtb.read_hits                           0                       # DTB read hits
system.cpu0.dtb.read_misses                         0                       # DTB read misses
system.cpu0.dtb.write_accesses                      0                       # DTB write accesses
system.cpu0.dtb.write_hits                          0                       # DTB write hits
system.cpu0.dtb.write_misses                        0                       # DTB write misses
system.cpu0.fetch.Branches                  156927926                       # Number of branches that fetch encountered
system.cpu0.fetch.CacheLines                104436974                       # Number of cache lines fetched
system.cpu0.fetch.Cycles                    630774798                       # Number of cycles fetch has run and was not squashing or blocked
system.cpu0.fetch.IcacheSquashes              3015076                       # Number of outstanding Icache misses that were squashed
system.cpu0.fetch.IcacheWaitRetryStallCycles           77                       # Number of stall cycles due to full MSHR
system.cpu0.fetch.Insts                     650274102                       # Number of instructions fetch has processed
system.cpu0.fetch.MiscStallCycles                  15                       # Number of cycles fetch has spent waiting on interrupts, or bad addresses, or out of MSHRs
system.cpu0.fetch.PendingTrapStallCycles           47                       # Number of stall cycles due to pending traps
system.cpu0.fetch.SquashCycles               18570376                       # Number of cycles fetch has spent squashing
system.cpu0.fetch.branchRate                 0.148857                       # Number of branch fetches per cycle
system.cpu0.fetch.icacheStallCycles         344743665                       # Number of cycles fetch is stalled on an Icache miss
system.cpu0.fetch.predictedBranches          90407369                       # Number of branches that fetch has predicted taken
system.cpu0.fetch.rate                       0.616830                       # Number of inst fetches per cycle
system.cpu0.fetch.rateDist::samples         984803790                       # Number of instructions fetched each cycle (Total)
system.cpu0.fetch.rateDist::mean             0.661344                       # Number of instructions fetched each cycle (Total)
system.cpu0.fetch.rateDist::stdev            0.922556                       # Number of instructions fetched each cycle (Total)
system.cpu0.fetch.rateDist::underflows              0      0.00%      0.00% # Number of instructions fetched each cycle (Total)
system.cpu0.fetch.rateDist::0               531395279     53.96%     53.96% # Number of instructions fetched each cycle (Total)
system.cpu0.fetch.rateDist::1               333504559     33.87%     87.82% # Number of instructions fetched each cycle (Total)
system.cpu0.fetch.rateDist::2                62011823      6.30%     94.12% # Number of instructions fetched each cycle (Total)
system.cpu0.fetch.rateDist::3                44266095      4.49%     98.62% # Number of instructions fetched each cycle (Total)
system.cpu0.fetch.rateDist::4                10486957      1.06%     99.68% # Number of instructions fetched each cycle (Total)
system.cpu0.fetch.rateDist::5                 1856570      0.19%     99.87% # Number of instructions fetched each cycle (Total)
system.cpu0.fetch.rateDist::6                  261449      0.03%     99.90% # Number of instructions fetched each cycle (Total)
system.cpu0.fetch.rateDist::7                     414      0.00%     99.90% # Number of instructions fetched each cycle (Total)
system.cpu0.fetch.rateDist::8                 1020644      0.10%    100.00% # Number of instructions fetched each cycle (Total)
system.cpu0.fetch.rateDist::overflows               0      0.00%    100.00% # Number of instructions fetched each cycle (Total)
system.cpu0.fetch.rateDist::min_value               0                       # Number of instructions fetched each cycle (Total)
system.cpu0.fetch.rateDist::max_value               8                       # Number of instructions fetched each cycle (Total)
system.cpu0.fetch.rateDist::total           984803790                       # Number of instructions fetched each cycle (Total)
system.cpu0.fp_regfile_reads                       44                       # number of floating regfile reads
system.cpu0.fp_regfile_writes                      23                       # number of floating regfile writes
system.cpu0.idleCycles                       69415641                       # Total number of cycles that the CPU has spent unscheduled due to idling
system.cpu0.iew.branchMispredicts             6191100                       # Number of branch mispredicts detected at execute
system.cpu0.iew.exec_branches               147849084                       # Number of branches executed
system.cpu0.iew.exec_nop                            0                       # number of nop insts executed
system.cpu0.iew.exec_rate                    0.580518                       # Inst execution rate
system.cpu0.iew.exec_refs                   269945049                       # number of memory reference insts executed
system.cpu0.iew.exec_stores                  75148944                       # Number of stores executed
system.cpu0.iew.exec_swp                            0                       # number of swp insts executed
system.cpu0.iew.iewBlockCycles              157695051                       # Number of cycles IEW is blocking
system.cpu0.iew.iewDispLoadInsts            194464311                       # Number of dispatched load instructions
system.cpu0.iew.iewDispNonSpecInsts           1021081                       # Number of dispatched non-speculative instructions
system.cpu0.iew.iewDispSquashedInsts          3660697                       # Number of squashed instructions skipped by dispatch
system.cpu0.iew.iewDispStoreInsts            76086301                       # Number of dispatched store instructions
system.cpu0.iew.iewDispatchedInsts          618706418                       # Number of instructions dispatched to IQ
system.cpu0.iew.iewExecLoadInsts            194796105                       # Number of load instructions executed
system.cpu0.iew.iewExecSquashedInsts          4690546                       # Number of squashed instructions skipped in execute
system.cpu0.iew.iewExecutedInsts            611992967                       # Number of executed instructions
system.cpu0.iew.iewIQFullEvents               1046025                       # Number of times the IQ has become full, causing a stall
system.cpu0.iew.iewIdleCycles                       0                       # Number of cycles IEW is idle
system.cpu0.iew.iewLSQFullEvents              2777505                       # Number of times the LSQ has become full, causing a stall
system.cpu0.iew.iewSquashCycles               6066554                       # Number of cycles IEW is squashing
system.cpu0.iew.iewUnblockCycles              5001102                       # Number of cycles IEW is unblocking
system.cpu0.iew.lsq.thread0.blockedLoads            0                       # Number of blocked loads due to partial load-store forwarding
system.cpu0.iew.lsq.thread0.cacheBlocked       161045                       # Number of times an access to memory failed due to the cache being blocked
system.cpu0.iew.lsq.thread0.forwLoads         9406253                       # Number of loads that had data forwarded from stores
system.cpu0.iew.lsq.thread0.ignoredResponses        56759                       # Number of memory responses ignored because the instruction is squashed
system.cpu0.iew.lsq.thread0.invAddrLoads            0                       # Number of loads ignored due to an invalid address
system.cpu0.iew.lsq.thread0.invAddrSwpfs            0                       # Number of software prefetches ignored due to an invalid address
system.cpu0.iew.lsq.thread0.memOrderViolation         5114                       # Number of memory ordering violations
system.cpu0.iew.lsq.thread0.rescheduledLoads      2453446                       # Number of loads that were rescheduled
system.cpu0.iew.lsq.thread0.squashedLoads     14507067                       # Number of loads squashed
system.cpu0.iew.lsq.thread0.squashedStores      4146565                       # Number of stores squashed
system.cpu0.iew.memOrderViolationEvents          5114                       # Number of memory order violations
system.cpu0.iew.predictedNotTakenIncorrect       884661                       # Number of branches that were predicted not taken incorrectly
system.cpu0.iew.predictedTakenIncorrect       5306439                       # Number of branches that were predicted taken incorrectly
system.cpu0.iew.wb_consumers                277189568                       # num instructions consuming a value
system.cpu0.iew.wb_count                    605406902                       # cumulative count of insts written-back
system.cpu0.iew.wb_fanout                    0.837008                       # average fanout of values written-back
system.cpu0.iew.wb_producers                232009831                       # num instructions producing a value
system.cpu0.iew.wb_rate                      0.574270                       # insts written-back per cycle
system.cpu0.iew.wb_sent                     605465967                       # cumulative count of insts sent to commit
system.cpu0.int_regfile_reads               746853507                       # number of integer regfile reads
system.cpu0.int_regfile_writes              386992595                       # number of integer regfile writes
system.cpu0.ipc                              0.550470                       # IPC: Instructions Per Cycle
system.cpu0.ipc_total                        0.550470                       # IPC: Total IPC of All Threads
system.cpu0.iq.FU_type_0::No_OpClass          2038428      0.33%      0.33% # Type of FU issued
system.cpu0.iq.FU_type_0::IntAlu            337566262     54.74%     55.07% # Type of FU issued
system.cpu0.iq.FU_type_0::IntMult             4212931      0.68%     55.75% # Type of FU issued
system.cpu0.iq.FU_type_0::IntDiv              1018048      0.17%     55.92% # Type of FU issued
system.cpu0.iq.FU_type_0::FloatAdd                  0      0.00%     55.92% # Type of FU issued
system.cpu0.iq.FU_type_0::FloatCmp                  4      0.00%     55.92% # Type of FU issued
system.cpu0.iq.FU_type_0::FloatCvt                 12      0.00%     55.92% # Type of FU issued
system.cpu0.iq.FU_type_0::FloatMult                 0      0.00%     55.92% # Type of FU issued
system.cpu0.iq.FU_type_0::FloatMultAcc              0      0.00%     55.92% # Type of FU issued
system.cpu0.iq.FU_type_0::FloatDiv                  2      0.00%     55.92% # Type of FU issued
system.cpu0.iq.FU_type_0::FloatMisc                 4      0.00%     55.92% # Type of FU issued
system.cpu0.iq.FU_type_0::FloatSqrt                 0      0.00%     55.92% # Type of FU issued
system.cpu0.iq.FU_type_0::SimdAdd                   0      0.00%     55.92% # Type of FU issued
system.cpu0.iq.FU_type_0::SimdAddAcc                0      0.00%     55.92% # Type of FU issued
system.cpu0.iq.FU_type_0::SimdAlu                   0      0.00%     55.92% # Type of FU issued
system.cpu0.iq.FU_type_0::SimdCmp                   0      0.00%     55.92% # Type of FU issued
system.cpu0.iq.FU_type_0::SimdCvt                   0      0.00%     55.92% # Type of FU issued
system.cpu0.iq.FU_type_0::SimdMisc                  0      0.00%     55.92% # Type of FU issued
system.cpu0.iq.FU_type_0::SimdMult                  0      0.00%     55.92% # Type of FU issued
system.cpu0.iq.FU_type_0::SimdMultAcc               0      0.00%     55.92% # Type of FU issued
system.cpu0.iq.FU_type_0::SimdShift                 0      0.00%     55.92% # Type of FU issued
system.cpu0.iq.FU_type_0::SimdShiftAcc              0      0.00%     55.92% # Type of FU issued
system.cpu0.iq.FU_type_0::SimdDiv                   0      0.00%     55.92% # Type of FU issued
system.cpu0.iq.FU_type_0::SimdSqrt                  0      0.00%     55.92% # Type of FU issued
system.cpu0.iq.FU_type_0::SimdFloatAdd              0      0.00%     55.92% # Type of FU issued
system.cpu0.iq.FU_type_0::SimdFloatAlu              0      0.00%     55.92% # Type of FU issued
system.cpu0.iq.FU_type_0::SimdFloatCmp              0      0.00%     55.92% # Type of FU issued
system.cpu0.iq.FU_type_0::SimdFloatCvt              0      0.00%     55.92% # Type of FU issued
system.cpu0.iq.FU_type_0::SimdFloatDiv              0      0.00%     55.92% # Type of FU issued
system.cpu0.iq.FU_type_0::SimdFloatMisc             0      0.00%     55.92% # Type of FU issued
system.cpu0.iq.FU_type_0::SimdFloatMult             0      0.00%     55.92% # Type of FU issued
system.cpu0.iq.FU_type_0::SimdFloatMultAcc            0      0.00%     55.92% # Type of FU issued
system.cpu0.iq.FU_type_0::SimdFloatSqrt             0      0.00%     55.92% # Type of FU issued
system.cpu0.iq.FU_type_0::SimdReduceAdd             0      0.00%     55.92% # Type of FU issued
system.cpu0.iq.FU_type_0::SimdReduceAlu             0      0.00%     55.92% # Type of FU issued
system.cpu0.iq.FU_type_0::SimdReduceCmp             0      0.00%     55.92% # Type of FU issued
system.cpu0.iq.FU_type_0::SimdFloatReduceAdd            0      0.00%     55.92% # Type of FU issued
system.cpu0.iq.FU_type_0::SimdFloatReduceCmp            0      0.00%     55.92% # Type of FU issued
system.cpu0.iq.FU_type_0::SimdAes                   0      0.00%     55.92% # Type of FU issued
system.cpu0.iq.FU_type_0::SimdAesMix                0      0.00%     55.92% # Type of FU issued
system.cpu0.iq.FU_type_0::SimdSha1Hash              0      0.00%     55.92% # Type of FU issued
system.cpu0.iq.FU_type_0::SimdSha1Hash2             0      0.00%     55.92% # Type of FU issued
system.cpu0.iq.FU_type_0::SimdSha256Hash            0      0.00%     55.92% # Type of FU issued
system.cpu0.iq.FU_type_0::SimdSha256Hash2            0      0.00%     55.92% # Type of FU issued
system.cpu0.iq.FU_type_0::SimdShaSigma2             0      0.00%     55.92% # Type of FU issued
system.cpu0.iq.FU_type_0::SimdShaSigma3             0      0.00%     55.92% # Type of FU issued
system.cpu0.iq.FU_type_0::SimdPredAlu               0      0.00%     55.92% # Type of FU issued
system.cpu0.iq.FU_type_0::MemRead           197392694     32.01%     87.93% # Type of FU issued
system.cpu0.iq.FU_type_0::MemWrite           74455099     12.07%    100.00% # Type of FU issued
system.cpu0.iq.FU_type_0::FloatMemRead              9      0.00%    100.00% # Type of FU issued
system.cpu0.iq.FU_type_0::FloatMemWrite            20      0.00%    100.00% # Type of FU issued
system.cpu0.iq.FU_type_0::IprAccess                 0      0.00%    100.00% # Type of FU issued
system.cpu0.iq.FU_type_0::InstPrefetch              0      0.00%    100.00% # Type of FU issued
system.cpu0.iq.FU_type_0::total             616683513                       # Type of FU issued
system.cpu0.iq.fp_alu_accesses                     55                       # Number of floating point alu accesses
system.cpu0.iq.fp_inst_queue_reads                106                       # Number of floating instruction queue reads
system.cpu0.iq.fp_inst_queue_wakeup_accesses           51                       # Number of floating instruction queue wakeup accesses
system.cpu0.iq.fp_inst_queue_writes                52                       # Number of floating instruction queue writes
system.cpu0.iq.fu_busy_cnt                    1486509                       # FU busy when requested
system.cpu0.iq.fu_busy_rate                  0.002410                       # FU busy rate (busy events/executed inst)
system.cpu0.iq.fu_full::No_OpClass                  0      0.00%      0.00% # attempts to use FU when none available
system.cpu0.iq.fu_full::IntAlu                 286322     19.26%     19.26% # attempts to use FU when none available
system.cpu0.iq.fu_full::IntMult                    13      0.00%     19.26% # attempts to use FU when none available
system.cpu0.iq.fu_full::IntDiv                      0      0.00%     19.26% # attempts to use FU when none available
system.cpu0.iq.fu_full::FloatAdd                    0      0.00%     19.26% # attempts to use FU when none available
system.cpu0.iq.fu_full::FloatCmp                    0      0.00%     19.26% # attempts to use FU when none available
system.cpu0.iq.fu_full::FloatCvt                    0      0.00%     19.26% # attempts to use FU when none available
system.cpu0.iq.fu_full::FloatMult                   0      0.00%     19.26% # attempts to use FU when none available
system.cpu0.iq.fu_full::FloatMultAcc                0      0.00%     19.26% # attempts to use FU when none available
system.cpu0.iq.fu_full::FloatDiv                    0      0.00%     19.26% # attempts to use FU when none available
system.cpu0.iq.fu_full::FloatMisc                   0      0.00%     19.26% # attempts to use FU when none available
system.cpu0.iq.fu_full::FloatSqrt                   0      0.00%     19.26% # attempts to use FU when none available
system.cpu0.iq.fu_full::SimdAdd                     0      0.00%     19.26% # attempts to use FU when none available
system.cpu0.iq.fu_full::SimdAddAcc                  0      0.00%     19.26% # attempts to use FU when none available
system.cpu0.iq.fu_full::SimdAlu                     0      0.00%     19.26% # attempts to use FU when none available
system.cpu0.iq.fu_full::SimdCmp                     0      0.00%     19.26% # attempts to use FU when none available
system.cpu0.iq.fu_full::SimdCvt                     0      0.00%     19.26% # attempts to use FU when none available
system.cpu0.iq.fu_full::SimdMisc                    0      0.00%     19.26% # attempts to use FU when none available
system.cpu0.iq.fu_full::SimdMult                    0      0.00%     19.26% # attempts to use FU when none available
system.cpu0.iq.fu_full::SimdMultAcc                 0      0.00%     19.26% # attempts to use FU when none available
system.cpu0.iq.fu_full::SimdShift                   0      0.00%     19.26% # attempts to use FU when none available
system.cpu0.iq.fu_full::SimdShiftAcc                0      0.00%     19.26% # attempts to use FU when none available
system.cpu0.iq.fu_full::SimdDiv                     0      0.00%     19.26% # attempts to use FU when none available
system.cpu0.iq.fu_full::SimdSqrt                    0      0.00%     19.26% # attempts to use FU when none available
system.cpu0.iq.fu_full::SimdFloatAdd                0      0.00%     19.26% # attempts to use FU when none available
system.cpu0.iq.fu_full::SimdFloatAlu                0      0.00%     19.26% # attempts to use FU when none available
system.cpu0.iq.fu_full::SimdFloatCmp                0      0.00%     19.26% # attempts to use FU when none available
system.cpu0.iq.fu_full::SimdFloatCvt                0      0.00%     19.26% # attempts to use FU when none available
system.cpu0.iq.fu_full::SimdFloatDiv                0      0.00%     19.26% # attempts to use FU when none available
system.cpu0.iq.fu_full::SimdFloatMisc               0      0.00%     19.26% # attempts to use FU when none available
system.cpu0.iq.fu_full::SimdFloatMult               0      0.00%     19.26% # attempts to use FU when none available
system.cpu0.iq.fu_full::SimdFloatMultAcc            0      0.00%     19.26% # attempts to use FU when none available
system.cpu0.iq.fu_full::SimdFloatSqrt               0      0.00%     19.26% # attempts to use FU when none available
system.cpu0.iq.fu_full::SimdReduceAdd               0      0.00%     19.26% # attempts to use FU when none available
system.cpu0.iq.fu_full::SimdReduceAlu               0      0.00%     19.26% # attempts to use FU when none available
system.cpu0.iq.fu_full::SimdReduceCmp               0      0.00%     19.26% # attempts to use FU when none available
system.cpu0.iq.fu_full::SimdFloatReduceAdd            0      0.00%     19.26% # attempts to use FU when none available
system.cpu0.iq.fu_full::SimdFloatReduceCmp            0      0.00%     19.26% # attempts to use FU when none available
system.cpu0.iq.fu_full::SimdAes                     0      0.00%     19.26% # attempts to use FU when none available
system.cpu0.iq.fu_full::SimdAesMix                  0      0.00%     19.26% # attempts to use FU when none available
system.cpu0.iq.fu_full::SimdSha1Hash                0      0.00%     19.26% # attempts to use FU when none available
system.cpu0.iq.fu_full::SimdSha1Hash2               0      0.00%     19.26% # attempts to use FU when none available
system.cpu0.iq.fu_full::SimdSha256Hash              0      0.00%     19.26% # attempts to use FU when none available
system.cpu0.iq.fu_full::SimdSha256Hash2             0      0.00%     19.26% # attempts to use FU when none available
system.cpu0.iq.fu_full::SimdShaSigma2               0      0.00%     19.26% # attempts to use FU when none available
system.cpu0.iq.fu_full::SimdShaSigma3               0      0.00%     19.26% # attempts to use FU when none available
system.cpu0.iq.fu_full::SimdPredAlu                 0      0.00%     19.26% # attempts to use FU when none available
system.cpu0.iq.fu_full::MemRead               1033235     69.51%     88.77% # attempts to use FU when none available
system.cpu0.iq.fu_full::MemWrite               166935     11.23%    100.00% # attempts to use FU when none available
system.cpu0.iq.fu_full::FloatMemRead                0      0.00%    100.00% # attempts to use FU when none available
system.cpu0.iq.fu_full::FloatMemWrite               4      0.00%    100.00% # attempts to use FU when none available
system.cpu0.iq.fu_full::IprAccess                   0      0.00%    100.00% # attempts to use FU when none available
system.cpu0.iq.fu_full::InstPrefetch                0      0.00%    100.00% # attempts to use FU when none available
system.cpu0.iq.int_alu_accesses             616131539                       # Number of integer alu accesses
system.cpu0.iq.int_inst_queue_reads        2219771621                       # Number of integer instruction queue reads
system.cpu0.iq.int_inst_queue_wakeup_accesses    605406851                       # Number of integer instruction queue wakeup accesses
system.cpu0.iq.int_inst_queue_writes        656081168                       # Number of integer instruction queue writes
system.cpu0.iq.iqInstsAdded                 615647641                       # Number of instructions added to the IQ (excludes non-spec)
system.cpu0.iq.iqInstsIssued                616683513                       # Number of instructions issued
system.cpu0.iq.iqNonSpecInstsAdded            3058777                       # Number of non-speculative instructions added to the IQ
system.cpu0.iq.iqSquashedInstsExamined       37370573                       # Number of squashed instructions iterated over during squash; mainly for profiling
system.cpu0.iq.iqSquashedInstsIssued           114402                       # Number of squashed instructions issued
system.cpu0.iq.iqSquashedNonSpecRemoved           327                       # Number of squashed non-spec instructions that were removed
system.cpu0.iq.iqSquashedOperandsExamined     13454276                       # Number of squashed operands that are examined and possibly removed from graph
system.cpu0.iq.issued_per_cycle::samples    984803790                       # Number of insts issued each cycle
system.cpu0.iq.issued_per_cycle::mean        0.626199                       # Number of insts issued each cycle
system.cpu0.iq.issued_per_cycle::stdev       0.858639                       # Number of insts issued each cycle
system.cpu0.iq.issued_per_cycle::underflows            0      0.00%      0.00% # Number of insts issued each cycle
system.cpu0.iq.issued_per_cycle::0          556324603     56.49%     56.49% # Number of insts issued each cycle
system.cpu0.iq.issued_per_cycle::1          287812742     29.23%     85.72% # Number of insts issued each cycle
system.cpu0.iq.issued_per_cycle::2          101645533     10.32%     96.04% # Number of insts issued each cycle
system.cpu0.iq.issued_per_cycle::3           32607239      3.31%     99.35% # Number of insts issued each cycle
system.cpu0.iq.issued_per_cycle::4            5297737      0.54%     99.89% # Number of insts issued each cycle
system.cpu0.iq.issued_per_cycle::5             445097      0.05%     99.93% # Number of insts issued each cycle
system.cpu0.iq.issued_per_cycle::6             458091      0.05%     99.98% # Number of insts issued each cycle
system.cpu0.iq.issued_per_cycle::7             108975      0.01%     99.99% # Number of insts issued each cycle
system.cpu0.iq.issued_per_cycle::8             103773      0.01%    100.00% # Number of insts issued each cycle
system.cpu0.iq.issued_per_cycle::overflows            0      0.00%    100.00% # Number of insts issued each cycle
system.cpu0.iq.issued_per_cycle::min_value            0                       # Number of insts issued each cycle
system.cpu0.iq.issued_per_cycle::max_value            8                       # Number of insts issued each cycle
system.cpu0.iq.issued_per_cycle::total      984803790                       # Number of insts issued each cycle
system.cpu0.iq.rate                          0.584967                       # Inst issue rate
system.cpu0.iq.vec_alu_accesses                     0                       # Number of vector alu accesses
system.cpu0.iq.vec_inst_queue_reads                 0                       # Number of vector instruction queue reads
system.cpu0.iq.vec_inst_queue_wakeup_accesses            0                       # Number of vector instruction queue wakeup accesses
system.cpu0.iq.vec_inst_queue_writes                0                       # Number of vector instruction queue writes
system.cpu0.itb.accesses                            0                       # DTB accesses
system.cpu0.itb.hits                                0                       # DTB hits
system.cpu0.itb.misses                              0                       # DTB misses
system.cpu0.itb.read_accesses                       0                       # DTB read accesses
system.cpu0.itb.read_hits                           0                       # DTB read hits
system.cpu0.itb.read_misses                         0                       # DTB read misses
system.cpu0.itb.write_accesses                      0                       # DTB write accesses
system.cpu0.itb.write_hits                          0                       # DTB write hits
system.cpu0.itb.write_misses                        0                       # DTB write misses
system.cpu0.memDep0.conflictingLoads          9979141                       # Number of conflicting loads.
system.cpu0.memDep0.conflictingStores         2433387                       # Number of conflicting stores.
system.cpu0.memDep0.insertedLoads           194464311                       # Number of loads inserted to the mem dependence unit.
system.cpu0.memDep0.insertedStores           76086301                       # Number of stores inserted to the mem dependence unit.
system.cpu0.misc_regfile_reads                    877                       # number of misc regfile reads
system.cpu0.misc_regfile_writes                    22                       # number of misc regfile writes
system.cpu0.numCycles                      1054219431                       # number of cpu cycles simulated
system.cpu0.numWorkItemsCompleted                   0                       # number of work items this cpu completed
system.cpu0.numWorkItemsStarted                     0                       # number of work items this cpu started
system.cpu0.quiesceCycles                     9781383                       # Total number of cycles that CPU has spent quiesced or waiting for an interrupt
system.cpu0.rename.BlockCycles              169716025                       # Number of cycles rename is blocking
system.cpu0.rename.CommittedMaps            370587903                       # Number of HB maps that are committed
system.cpu0.rename.IQFullEvents               7276265                       # Number of times rename has blocked due to IQ full
system.cpu0.rename.IdleCycles               360125933                       # Number of cycles rename is idle
system.cpu0.rename.LQFullEvents               4882013                       # Number of times rename has blocked due to LQ full
system.cpu0.rename.ROBFullEvents                 5947                       # Number of times rename has blocked due to ROB full
system.cpu0.rename.RenameLookups            770087641                       # Number of register rename lookups that rename has made
system.cpu0.rename.RenamedInsts             629931839                       # Number of instructions processed by rename
system.cpu0.rename.RenamedOperands          404784622                       # Number of destination operands rename has renamed
system.cpu0.rename.RunCycles                425864481                       # Number of cycles rename is running
system.cpu0.rename.SQFullEvents              11050721                       # Number of times rename has blocked due to SQ full
system.cpu0.rename.SquashCycles               6066554                       # Number of cycles rename is squashing
system.cpu0.rename.UnblockCycles             22944548                       # Number of cycles rename is unblocking
system.cpu0.rename.UndoneMaps                34196715                       # Number of HB maps that are undone due to squashing
system.cpu0.rename.fp_rename_lookups               44                       # Number of floating rename lookups
system.cpu0.rename.int_rename_lookups       770087597                       # Number of integer rename lookups
system.cpu0.rename.serializeStallCycles         86249                       # count of cycles rename stalled for serializing inst
system.cpu0.rename.serializingInsts              2787                       # count of serializing insts renamed
system.cpu0.rename.skidInsts                 14697839                       # count of insts added to the skid buffer
system.cpu0.rename.tempSerializingInsts          2776                       # count of temporary serializing insts renamed
system.cpu0.rob.rob_reads                  1577967683                       # The number of ROB reads
system.cpu0.rob.rob_writes                 1246655919                       # The number of ROB writes
system.cpu0.timesIdled                       10794843                       # Number of times that the entire CPU went into an idle state and unscheduled itself
system.cpu0.workload.numSyscalls                  844                       # Number of system calls
system.cpu1.branchPred.BTBCorrect                   0                       # Number of correct BTB predictions (this stat may not work properly.
system.cpu1.branchPred.BTBHitPct            74.117990                       # BTB Hit Percentage
system.cpu1.branchPred.BTBHits                4545895                       # Number of BTB hits
system.cpu1.branchPred.BTBLookups             6133322                       # Number of BTB lookups
system.cpu1.branchPred.RASInCorrect                 0                       # Number of incorrect RAS predictions.
system.cpu1.branchPred.condIncorrect           815836                       # Number of conditional branches incorrect
system.cpu1.branchPred.condPredicted          7807659                       # Number of conditional branches predicted
system.cpu1.branchPred.indirectHits            264528                       # Number of indirect target hits.
system.cpu1.branchPred.indirectLookups         401831                       # Number of indirect predictor lookups.
system.cpu1.branchPred.indirectMisses          137303                       # Number of indirect misses.
system.cpu1.branchPred.lookups                8791888                       # Number of BP lookups
system.cpu1.branchPred.usedRAS                      0                       # Number of times the RAS was used to get a target.
system.cpu1.branchPredindirectMispredicted         3191                       # Number of mispredicted indirect branches.
system.cpu1.commit.amos                       1017929                       # Number of atomic instructions committed
system.cpu1.commit.branchMispredicts           483341                       # The number of times a branch was mispredicted
system.cpu1.commit.branches                   7095603                       # Number of branches committed
system.cpu1.commit.bw_lim_events               788989                       # number cycles where commit BW limit reached
system.cpu1.commit.commitNonSpecStalls        3054440                       # The number of times commit has been forced to stall to communicate backwards
system.cpu1.commit.commitSquashedInsts        4283477                       # The number of squashed insts skipped by commit
system.cpu1.commit.committedInsts            32264437                       # Number of instructions committed
system.cpu1.commit.committedOps              33282539                       # Number of ops (including micro ops) committed
system.cpu1.commit.committed_per_cycle::samples    198428125                       # Number of insts commited each cycle
system.cpu1.commit.committed_per_cycle::mean     0.167731                       # Number of insts commited each cycle
system.cpu1.commit.committed_per_cycle::stdev     0.811652                       # Number of insts commited each cycle
system.cpu1.commit.committed_per_cycle::underflows            0      0.00%      0.00% # Number of insts commited each cycle
system.cpu1.commit.committed_per_cycle::0    184542214     93.00%     93.00% # Number of insts commited each cycle
system.cpu1.commit.committed_per_cycle::1      7018261      3.54%     96.54% # Number of insts commited each cycle
system.cpu1.commit.committed_per_cycle::2      2357527      1.19%     97.73% # Number of insts commited each cycle
system.cpu1.commit.committed_per_cycle::3      2046467      1.03%     98.76% # Number of insts commited each cycle
system.cpu1.commit.committed_per_cycle::4       440836      0.22%     98.98% # Number of insts commited each cycle
system.cpu1.commit.committed_per_cycle::5       179609      0.09%     99.07% # Number of insts commited each cycle
system.cpu1.commit.committed_per_cycle::6       943032      0.48%     99.55% # Number of insts commited each cycle
system.cpu1.commit.committed_per_cycle::7       111190      0.06%     99.60% # Number of insts commited each cycle
system.cpu1.commit.committed_per_cycle::8       788989      0.40%    100.00% # Number of insts commited each cycle
system.cpu1.commit.committed_per_cycle::overflows            0      0.00%    100.00% # Number of insts commited each cycle
system.cpu1.commit.committed_per_cycle::min_value            0                       # Number of insts commited each cycle
system.cpu1.commit.committed_per_cycle::max_value            8                       # Number of insts commited each cycle
system.cpu1.commit.committed_per_cycle::total    198428125                       # Number of insts commited each cycle
system.cpu1.commit.fp_insts                        12                       # Number of committed floating point instructions.
system.cpu1.commit.function_calls              320858                       # Number of function calls committed.
system.cpu1.commit.int_insts                 31049325                       # Number of committed integer instructions.
system.cpu1.commit.loads                      9248738                       # Number of loads committed
system.cpu1.commit.membars                    2035980                       # Number of memory barriers committed
system.cpu1.commit.op_class_0::No_OpClass      2035980      6.12%      6.12% # Class of committed instruction
system.cpu1.commit.op_class_0::IntAlu        19083463     57.34%     63.46% # Class of committed instruction
system.cpu1.commit.op_class_0::IntMult             42      0.00%     63.46% # Class of committed instruction
system.cpu1.commit.op_class_0::IntDiv              84      0.00%     63.46% # Class of committed instruction
system.cpu1.commit.op_class_0::FloatAdd             0      0.00%     63.46% # Class of committed instruction
system.cpu1.commit.op_class_0::FloatCmp             0      0.00%     63.46% # Class of committed instruction
system.cpu1.commit.op_class_0::FloatCvt             0      0.00%     63.46% # Class of committed instruction
system.cpu1.commit.op_class_0::FloatMult            0      0.00%     63.46% # Class of committed instruction
system.cpu1.commit.op_class_0::FloatMultAcc            0      0.00%     63.46% # Class of committed instruction
system.cpu1.commit.op_class_0::FloatDiv             0      0.00%     63.46% # Class of committed instruction
system.cpu1.commit.op_class_0::FloatMisc            0      0.00%     63.46% # Class of committed instruction
system.cpu1.commit.op_class_0::FloatSqrt            0      0.00%     63.46% # Class of committed instruction
system.cpu1.commit.op_class_0::SimdAdd              0      0.00%     63.46% # Class of committed instruction
system.cpu1.commit.op_class_0::SimdAddAcc            0      0.00%     63.46% # Class of committed instruction
system.cpu1.commit.op_class_0::SimdAlu              0      0.00%     63.46% # Class of committed instruction
system.cpu1.commit.op_class_0::SimdCmp              0      0.00%     63.46% # Class of committed instruction
system.cpu1.commit.op_class_0::SimdCvt              0      0.00%     63.46% # Class of committed instruction
system.cpu1.commit.op_class_0::SimdMisc             0      0.00%     63.46% # Class of committed instruction
system.cpu1.commit.op_class_0::SimdMult             0      0.00%     63.46% # Class of committed instruction
system.cpu1.commit.op_class_0::SimdMultAcc            0      0.00%     63.46% # Class of committed instruction
system.cpu1.commit.op_class_0::SimdShift            0      0.00%     63.46% # Class of committed instruction
system.cpu1.commit.op_class_0::SimdShiftAcc            0      0.00%     63.46% # Class of committed instruction
system.cpu1.commit.op_class_0::SimdDiv              0      0.00%     63.46% # Class of committed instruction
system.cpu1.commit.op_class_0::SimdSqrt             0      0.00%     63.46% # Class of committed instruction
system.cpu1.commit.op_class_0::SimdFloatAdd            0      0.00%     63.46% # Class of committed instruction
system.cpu1.commit.op_class_0::SimdFloatAlu            0      0.00%     63.46% # Class of committed instruction
system.cpu1.commit.op_class_0::SimdFloatCmp            0      0.00%     63.46% # Class of committed instruction
system.cpu1.commit.op_class_0::SimdFloatCvt            0      0.00%     63.46% # Class of committed instruction
system.cpu1.commit.op_class_0::SimdFloatDiv            0      0.00%     63.46% # Class of committed instruction
system.cpu1.commit.op_class_0::SimdFloatMisc            0      0.00%     63.46% # Class of committed instruction
system.cpu1.commit.op_class_0::SimdFloatMult            0      0.00%     63.46% # Class of committed instruction
system.cpu1.commit.op_class_0::SimdFloatMultAcc            0      0.00%     63.46% # Class of committed instruction
system.cpu1.commit.op_class_0::SimdFloatSqrt            0      0.00%     63.46% # Class of committed instruction
system.cpu1.commit.op_class_0::SimdReduceAdd            0      0.00%     63.46% # Class of committed instruction
system.cpu1.commit.op_class_0::SimdReduceAlu            0      0.00%     63.46% # Class of committed instruction
system.cpu1.commit.op_class_0::SimdReduceCmp            0      0.00%     63.46% # Class of committed instruction
system.cpu1.commit.op_class_0::SimdFloatReduceAdd            0      0.00%     63.46% # Class of committed instruction
system.cpu1.commit.op_class_0::SimdFloatReduceCmp            0      0.00%     63.46% # Class of committed instruction
system.cpu1.commit.op_class_0::SimdAes              0      0.00%     63.46% # Class of committed instruction
system.cpu1.commit.op_class_0::SimdAesMix            0      0.00%     63.46% # Class of committed instruction
system.cpu1.commit.op_class_0::SimdSha1Hash            0      0.00%     63.46% # Class of committed instruction
system.cpu1.commit.op_class_0::SimdSha1Hash2            0      0.00%     63.46% # Class of committed instruction
system.cpu1.commit.op_class_0::SimdSha256Hash            0      0.00%     63.46% # Class of committed instruction
system.cpu1.commit.op_class_0::SimdSha256Hash2            0      0.00%     63.46% # Class of committed instruction
system.cpu1.commit.op_class_0::SimdShaSigma2            0      0.00%     63.46% # Class of committed instruction
system.cpu1.commit.op_class_0::SimdShaSigma3            0      0.00%     63.46% # Class of committed instruction
system.cpu1.commit.op_class_0::SimdPredAlu            0      0.00%     63.46% # Class of committed instruction
system.cpu1.commit.op_class_0::MemRead       10266667     30.85%     94.30% # Class of committed instruction
system.cpu1.commit.op_class_0::MemWrite       1896291      5.70%    100.00% # Class of committed instruction
system.cpu1.commit.op_class_0::FloatMemRead            0      0.00%    100.00% # Class of committed instruction
system.cpu1.commit.op_class_0::FloatMemWrite           12      0.00%    100.00% # Class of committed instruction
system.cpu1.commit.op_class_0::IprAccess            0      0.00%    100.00% # Class of committed instruction
system.cpu1.commit.op_class_0::InstPrefetch            0      0.00%    100.00% # Class of committed instruction
system.cpu1.commit.op_class_0::total         33282539                       # Class of committed instruction
system.cpu1.commit.refs                      12162970                       # Number of memory references committed
system.cpu1.commit.swp_count                        0                       # Number of s/w prefetches committed
system.cpu1.commit.vec_insts                        0                       # Number of committed Vector instructions.
system.cpu1.committedInsts                   32264437                       # Number of Instructions Simulated
system.cpu1.committedOps                     33282539                       # Number of Ops (including micro ops) Simulated
system.cpu1.cpi                              6.185331                       # CPI: Cycles Per Instruction
system.cpu1.cpi_total                        6.185331                       # CPI: Total CPI of All Threads
system.cpu1.decode.BlockedCycles            177584475                       # Number of cycles decode is blocked
system.cpu1.decode.BranchMispred               336005                       # Number of times decode detected a branch misprediction
system.cpu1.decode.BranchResolved             4359072                       # Number of times decode resolved a branch
system.cpu1.decode.DecodedInsts              39895511                       # Number of instructions handled by decode
system.cpu1.decode.IdleCycles                 6087888                       # Number of cycles decode is idle
system.cpu1.decode.RunCycles                 13039804                       # Number of cycles decode is running
system.cpu1.decode.SquashCycles                483523                       # Number of cycles decode is squashing
system.cpu1.decode.SquashedInsts               628924                       # Number of squashed instructions handled by decode
system.cpu1.decode.UnblockCycles              2091029                       # Number of cycles decode is unblocking
system.cpu1.dtb.accesses                            0                       # DTB accesses
system.cpu1.dtb.hits                                0                       # DTB hits
system.cpu1.dtb.misses                              0                       # DTB misses
system.cpu1.dtb.read_accesses                       0                       # DTB read accesses
system.cpu1.dtb.read_hits                           0                       # DTB read hits
system.cpu1.dtb.read_misses                         0                       # DTB read misses
system.cpu1.dtb.write_accesses                      0                       # DTB write accesses
system.cpu1.dtb.write_hits                          0                       # DTB write hits
system.cpu1.dtb.write_misses                        0                       # DTB write misses
system.cpu1.fetch.Branches                    8791888                       # Number of branches that fetch encountered
system.cpu1.fetch.CacheLines                  6431032                       # Number of cache lines fetched
system.cpu1.fetch.Cycles                    191663495                       # Number of cycles fetch has run and was not squashing or blocked
system.cpu1.fetch.IcacheSquashes               118501                       # Number of outstanding Icache misses that were squashed
system.cpu1.fetch.Insts                      40827822                       # Number of instructions fetch has processed
system.cpu1.fetch.MiscStallCycles                   1                       # Number of cycles fetch has spent waiting on interrupts, or bad addresses, or out of MSHRs
system.cpu1.fetch.SquashCycles                1632036                       # Number of cycles fetch has spent squashing
system.cpu1.fetch.branchRate                 0.044055                       # Number of branch fetches per cycle
system.cpu1.fetch.icacheStallCycles           6807205                       # Number of cycles fetch is stalled on an Icache miss
system.cpu1.fetch.predictedBranches           4810423                       # Number of branches that fetch has predicted taken
system.cpu1.fetch.rate                       0.204583                       # Number of inst fetches per cycle
system.cpu1.fetch.rateDist::samples         199286719                       # Number of instructions fetched each cycle (Total)
system.cpu1.fetch.rateDist::mean             0.209981                       # Number of instructions fetched each cycle (Total)
system.cpu1.fetch.rateDist::stdev            0.645091                       # Number of instructions fetched each cycle (Total)
system.cpu1.fetch.rateDist::underflows              0      0.00%      0.00% # Number of instructions fetched each cycle (Total)
system.cpu1.fetch.rateDist::0               174072564     87.35%     87.35% # Number of instructions fetched each cycle (Total)
system.cpu1.fetch.rateDist::1                14735062      7.39%     94.74% # Number of instructions fetched each cycle (Total)
system.cpu1.fetch.rateDist::2                 5948258      2.98%     97.73% # Number of instructions fetched each cycle (Total)
system.cpu1.fetch.rateDist::3                 3305256      1.66%     99.39% # Number of instructions fetched each cycle (Total)
system.cpu1.fetch.rateDist::4                  959326      0.48%     99.87% # Number of instructions fetched each cycle (Total)
system.cpu1.fetch.rateDist::5                  136119      0.07%     99.93% # Number of instructions fetched each cycle (Total)
system.cpu1.fetch.rateDist::6                  129909      0.07%    100.00% # Number of instructions fetched each cycle (Total)
system.cpu1.fetch.rateDist::7                      10      0.00%    100.00% # Number of instructions fetched each cycle (Total)
system.cpu1.fetch.rateDist::8                     215      0.00%    100.00% # Number of instructions fetched each cycle (Total)
system.cpu1.fetch.rateDist::overflows               0      0.00%    100.00% # Number of instructions fetched each cycle (Total)
system.cpu1.fetch.rateDist::min_value               0                       # Number of instructions fetched each cycle (Total)
system.cpu1.fetch.rateDist::max_value               8                       # Number of instructions fetched each cycle (Total)
system.cpu1.fetch.rateDist::total           199286719                       # Number of instructions fetched each cycle (Total)
system.cpu1.fp_regfile_reads                       12                       # number of floating regfile reads
system.cpu1.idleCycles                         279495                       # Total number of cycles that the CPU has spent unscheduled due to idling
system.cpu1.iew.branchMispredicts              510156                       # Number of branch mispredicts detected at execute
system.cpu1.iew.exec_branches                 7684426                       # Number of branches executed
system.cpu1.iew.exec_nop                            0                       # number of nop insts executed
system.cpu1.iew.exec_rate                    0.180454                       # Inst execution rate
system.cpu1.iew.exec_refs                    13041885                       # number of memory reference insts executed
system.cpu1.iew.exec_stores                   2947702                       # Number of stores executed
system.cpu1.iew.exec_swp                            0                       # number of swp insts executed
system.cpu1.iew.iewBlockCycles              152582867                       # Number of cycles IEW is blocking
system.cpu1.iew.iewDispLoadInsts             10087400                       # Number of dispatched load instructions
system.cpu1.iew.iewDispNonSpecInsts           1018567                       # Number of dispatched non-speculative instructions
system.cpu1.iew.iewDispSquashedInsts           804099                       # Number of squashed instructions skipped by dispatch
system.cpu1.iew.iewDispStoreInsts             2992497                       # Number of dispatched store instructions
system.cpu1.iew.iewDispatchedInsts           37560721                       # Number of instructions dispatched to IQ
system.cpu1.iew.iewExecLoadInsts             10094183                       # Number of load instructions executed
system.cpu1.iew.iewExecSquashedInsts           610082                       # Number of squashed instructions skipped in execute
system.cpu1.iew.iewExecutedInsts             36012591                       # Number of executed instructions
system.cpu1.iew.iewIQFullEvents               1033760                       # Number of times the IQ has become full, causing a stall
system.cpu1.iew.iewIdleCycles                       0                       # Number of cycles IEW is idle
system.cpu1.iew.iewLSQFullEvents              1288745                       # Number of times the LSQ has become full, causing a stall
system.cpu1.iew.iewSquashCycles                483523                       # Number of cycles IEW is squashing
system.cpu1.iew.iewUnblockCycles              3444940                       # Number of cycles IEW is unblocking
system.cpu1.iew.lsq.thread0.blockedLoads            0                       # Number of blocked loads due to partial load-store forwarding
system.cpu1.iew.lsq.thread0.cacheBlocked        38542                       # Number of times an access to memory failed due to the cache being blocked
system.cpu1.iew.lsq.thread0.forwLoads          174296                       # Number of loads that had data forwarded from stores
system.cpu1.iew.lsq.thread0.ignoredResponses         6135                       # Number of memory responses ignored because the instruction is squashed
system.cpu1.iew.lsq.thread0.invAddrLoads            0                       # Number of loads ignored due to an invalid address
system.cpu1.iew.lsq.thread0.invAddrSwpfs            0                       # Number of software prefetches ignored due to an invalid address
system.cpu1.iew.lsq.thread0.memOrderViolation          131                       # Number of memory ordering violations
system.cpu1.iew.lsq.thread0.rescheduledLoads          441                       # Number of loads that were rescheduled
system.cpu1.iew.lsq.thread0.squashedLoads       838662                       # Number of loads squashed
system.cpu1.iew.lsq.thread0.squashedStores        78265                       # Number of stores squashed
system.cpu1.iew.memOrderViolationEvents           131                       # Number of memory order violations
system.cpu1.iew.predictedNotTakenIncorrect        89942                       # Number of branches that were predicted not taken incorrectly
system.cpu1.iew.predictedTakenIncorrect        420214                       # Number of branches that were predicted taken incorrectly
system.cpu1.iew.wb_consumers                 21150705                       # num instructions consuming a value
system.cpu1.iew.wb_count                     35655575                       # cumulative count of insts written-back
system.cpu1.iew.wb_fanout                    0.851029                       # average fanout of values written-back
system.cpu1.iew.wb_producers                 17999871                       # num instructions producing a value
system.cpu1.iew.wb_rate                      0.178665                       # insts written-back per cycle
system.cpu1.iew.wb_sent                      35665792                       # cumulative count of insts sent to commit
system.cpu1.int_regfile_reads                44284706                       # number of integer regfile reads
system.cpu1.int_regfile_writes               24210282                       # number of integer regfile writes
system.cpu1.ipc                              0.161673                       # IPC: Instructions Per Cycle
system.cpu1.ipc_total                        0.161673                       # IPC: Total IPC of All Threads
system.cpu1.iq.FU_type_0::No_OpClass          2036078      5.56%      5.56% # Type of FU issued
system.cpu1.iq.FU_type_0::IntAlu             21461501     58.60%     64.16% # Type of FU issued
system.cpu1.iq.FU_type_0::IntMult                  45      0.00%     64.16% # Type of FU issued
system.cpu1.iq.FU_type_0::IntDiv                   84      0.00%     64.16% # Type of FU issued
system.cpu1.iq.FU_type_0::FloatAdd                  0      0.00%     64.16% # Type of FU issued
system.cpu1.iq.FU_type_0::FloatCmp                  0      0.00%     64.16% # Type of FU issued
system.cpu1.iq.FU_type_0::FloatCvt                  0      0.00%     64.16% # Type of FU issued
system.cpu1.iq.FU_type_0::FloatMult                 0      0.00%     64.16% # Type of FU issued
system.cpu1.iq.FU_type_0::FloatMultAcc              0      0.00%     64.16% # Type of FU issued
system.cpu1.iq.FU_type_0::FloatDiv                  0      0.00%     64.16% # Type of FU issued
system.cpu1.iq.FU_type_0::FloatMisc                 0      0.00%     64.16% # Type of FU issued
system.cpu1.iq.FU_type_0::FloatSqrt                 0      0.00%     64.16% # Type of FU issued
system.cpu1.iq.FU_type_0::SimdAdd                   0      0.00%     64.16% # Type of FU issued
system.cpu1.iq.FU_type_0::SimdAddAcc                0      0.00%     64.16% # Type of FU issued
system.cpu1.iq.FU_type_0::SimdAlu                   0      0.00%     64.16% # Type of FU issued
system.cpu1.iq.FU_type_0::SimdCmp                   0      0.00%     64.16% # Type of FU issued
system.cpu1.iq.FU_type_0::SimdCvt                   0      0.00%     64.16% # Type of FU issued
system.cpu1.iq.FU_type_0::SimdMisc                  0      0.00%     64.16% # Type of FU issued
system.cpu1.iq.FU_type_0::SimdMult                  0      0.00%     64.16% # Type of FU issued
system.cpu1.iq.FU_type_0::SimdMultAcc               0      0.00%     64.16% # Type of FU issued
system.cpu1.iq.FU_type_0::SimdShift                 0      0.00%     64.16% # Type of FU issued
system.cpu1.iq.FU_type_0::SimdShiftAcc              0      0.00%     64.16% # Type of FU issued
system.cpu1.iq.FU_type_0::SimdDiv                   0      0.00%     64.16% # Type of FU issued
system.cpu1.iq.FU_type_0::SimdSqrt                  0      0.00%     64.16% # Type of FU issued
system.cpu1.iq.FU_type_0::SimdFloatAdd              0      0.00%     64.16% # Type of FU issued
system.cpu1.iq.FU_type_0::SimdFloatAlu              0      0.00%     64.16% # Type of FU issued
system.cpu1.iq.FU_type_0::SimdFloatCmp              0      0.00%     64.16% # Type of FU issued
system.cpu1.iq.FU_type_0::SimdFloatCvt              0      0.00%     64.16% # Type of FU issued
system.cpu1.iq.FU_type_0::SimdFloatDiv              0      0.00%     64.16% # Type of FU issued
system.cpu1.iq.FU_type_0::SimdFloatMisc             0      0.00%     64.16% # Type of FU issued
system.cpu1.iq.FU_type_0::SimdFloatMult             0      0.00%     64.16% # Type of FU issued
system.cpu1.iq.FU_type_0::SimdFloatMultAcc            0      0.00%     64.16% # Type of FU issued
system.cpu1.iq.FU_type_0::SimdFloatSqrt             0      0.00%     64.16% # Type of FU issued
system.cpu1.iq.FU_type_0::SimdReduceAdd             0      0.00%     64.16% # Type of FU issued
system.cpu1.iq.FU_type_0::SimdReduceAlu             0      0.00%     64.16% # Type of FU issued
system.cpu1.iq.FU_type_0::SimdReduceCmp             0      0.00%     64.16% # Type of FU issued
system.cpu1.iq.FU_type_0::SimdFloatReduceAdd            0      0.00%     64.16% # Type of FU issued
system.cpu1.iq.FU_type_0::SimdFloatReduceCmp            0      0.00%     64.16% # Type of FU issued
system.cpu1.iq.FU_type_0::SimdAes                   0      0.00%     64.16% # Type of FU issued
system.cpu1.iq.FU_type_0::SimdAesMix                0      0.00%     64.16% # Type of FU issued
system.cpu1.iq.FU_type_0::SimdSha1Hash              0      0.00%     64.16% # Type of FU issued
system.cpu1.iq.FU_type_0::SimdSha1Hash2             0      0.00%     64.16% # Type of FU issued
system.cpu1.iq.FU_type_0::SimdSha256Hash            0      0.00%     64.16% # Type of FU issued
system.cpu1.iq.FU_type_0::SimdSha256Hash2            0      0.00%     64.16% # Type of FU issued
system.cpu1.iq.FU_type_0::SimdShaSigma2             0      0.00%     64.16% # Type of FU issued
system.cpu1.iq.FU_type_0::SimdShaSigma3             0      0.00%     64.16% # Type of FU issued
system.cpu1.iq.FU_type_0::SimdPredAlu               0      0.00%     64.16% # Type of FU issued
system.cpu1.iq.FU_type_0::MemRead            11185750     30.54%     94.70% # Type of FU issued
system.cpu1.iq.FU_type_0::MemWrite            1939203      5.30%    100.00% # Type of FU issued
system.cpu1.iq.FU_type_0::FloatMemRead              0      0.00%    100.00% # Type of FU issued
system.cpu1.iq.FU_type_0::FloatMemWrite            12      0.00%    100.00% # Type of FU issued
system.cpu1.iq.FU_type_0::IprAccess                 0      0.00%    100.00% # Type of FU issued
system.cpu1.iq.FU_type_0::InstPrefetch              0      0.00%    100.00% # Type of FU issued
system.cpu1.iq.FU_type_0::total              36622673                       # Type of FU issued
system.cpu1.iq.fp_alu_accesses                     16                       # Number of floating point alu accesses
system.cpu1.iq.fp_inst_queue_reads                 28                       # Number of floating instruction queue reads
system.cpu1.iq.fp_inst_queue_wakeup_accesses           12                       # Number of floating instruction queue wakeup accesses
system.cpu1.iq.fp_inst_queue_writes                12                       # Number of floating instruction queue writes
system.cpu1.iq.fu_busy_cnt                    1185233                       # FU busy when requested
system.cpu1.iq.fu_busy_rate                  0.032363                       # FU busy rate (busy events/executed inst)
system.cpu1.iq.fu_full::No_OpClass                  0      0.00%      0.00% # attempts to use FU when none available
system.cpu1.iq.fu_full::IntAlu                 239628     20.22%     20.22% # attempts to use FU when none available
system.cpu1.iq.fu_full::IntMult                     0      0.00%     20.22% # attempts to use FU when none available
system.cpu1.iq.fu_full::IntDiv                      0      0.00%     20.22% # attempts to use FU when none available
system.cpu1.iq.fu_full::FloatAdd                    0      0.00%     20.22% # attempts to use FU when none available
system.cpu1.iq.fu_full::FloatCmp                    0      0.00%     20.22% # attempts to use FU when none available
system.cpu1.iq.fu_full::FloatCvt                    0      0.00%     20.22% # attempts to use FU when none available
system.cpu1.iq.fu_full::FloatMult                   0      0.00%     20.22% # attempts to use FU when none available
system.cpu1.iq.fu_full::FloatMultAcc                0      0.00%     20.22% # attempts to use FU when none available
system.cpu1.iq.fu_full::FloatDiv                    0      0.00%     20.22% # attempts to use FU when none available
system.cpu1.iq.fu_full::FloatMisc                   0      0.00%     20.22% # attempts to use FU when none available
system.cpu1.iq.fu_full::FloatSqrt                   0      0.00%     20.22% # attempts to use FU when none available
system.cpu1.iq.fu_full::SimdAdd                     0      0.00%     20.22% # attempts to use FU when none available
system.cpu1.iq.fu_full::SimdAddAcc                  0      0.00%     20.22% # attempts to use FU when none available
system.cpu1.iq.fu_full::SimdAlu                     0      0.00%     20.22% # attempts to use FU when none available
system.cpu1.iq.fu_full::SimdCmp                     0      0.00%     20.22% # attempts to use FU when none available
system.cpu1.iq.fu_full::SimdCvt                     0      0.00%     20.22% # attempts to use FU when none available
system.cpu1.iq.fu_full::SimdMisc                    0      0.00%     20.22% # attempts to use FU when none available
system.cpu1.iq.fu_full::SimdMult                    0      0.00%     20.22% # attempts to use FU when none available
system.cpu1.iq.fu_full::SimdMultAcc                 0      0.00%     20.22% # attempts to use FU when none available
system.cpu1.iq.fu_full::SimdShift                   0      0.00%     20.22% # attempts to use FU when none available
system.cpu1.iq.fu_full::SimdShiftAcc                0      0.00%     20.22% # attempts to use FU when none available
system.cpu1.iq.fu_full::SimdDiv                     0      0.00%     20.22% # attempts to use FU when none available
system.cpu1.iq.fu_full::SimdSqrt                    0      0.00%     20.22% # attempts to use FU when none available
system.cpu1.iq.fu_full::SimdFloatAdd                0      0.00%     20.22% # attempts to use FU when none available
system.cpu1.iq.fu_full::SimdFloatAlu                0      0.00%     20.22% # attempts to use FU when none available
system.cpu1.iq.fu_full::SimdFloatCmp                0      0.00%     20.22% # attempts to use FU when none available
system.cpu1.iq.fu_full::SimdFloatCvt                0      0.00%     20.22% # attempts to use FU when none available
system.cpu1.iq.fu_full::SimdFloatDiv                0      0.00%     20.22% # attempts to use FU when none available
system.cpu1.iq.fu_full::SimdFloatMisc               0      0.00%     20.22% # attempts to use FU when none available
system.cpu1.iq.fu_full::SimdFloatMult               0      0.00%     20.22% # attempts to use FU when none available
system.cpu1.iq.fu_full::SimdFloatMultAcc            0      0.00%     20.22% # attempts to use FU when none available
system.cpu1.iq.fu_full::SimdFloatSqrt               0      0.00%     20.22% # attempts to use FU when none available
system.cpu1.iq.fu_full::SimdReduceAdd               0      0.00%     20.22% # attempts to use FU when none available
system.cpu1.iq.fu_full::SimdReduceAlu               0      0.00%     20.22% # attempts to use FU when none available
system.cpu1.iq.fu_full::SimdReduceCmp               0      0.00%     20.22% # attempts to use FU when none available
system.cpu1.iq.fu_full::SimdFloatReduceAdd            0      0.00%     20.22% # attempts to use FU when none available
system.cpu1.iq.fu_full::SimdFloatReduceCmp            0      0.00%     20.22% # attempts to use FU when none available
system.cpu1.iq.fu_full::SimdAes                     0      0.00%     20.22% # attempts to use FU when none available
system.cpu1.iq.fu_full::SimdAesMix                  0      0.00%     20.22% # attempts to use FU when none available
system.cpu1.iq.fu_full::SimdSha1Hash                0      0.00%     20.22% # attempts to use FU when none available
system.cpu1.iq.fu_full::SimdSha1Hash2               0      0.00%     20.22% # attempts to use FU when none available
system.cpu1.iq.fu_full::SimdSha256Hash              0      0.00%     20.22% # attempts to use FU when none available
system.cpu1.iq.fu_full::SimdSha256Hash2             0      0.00%     20.22% # attempts to use FU when none available
system.cpu1.iq.fu_full::SimdShaSigma2               0      0.00%     20.22% # attempts to use FU when none available
system.cpu1.iq.fu_full::SimdShaSigma3               0      0.00%     20.22% # attempts to use FU when none available
system.cpu1.iq.fu_full::SimdPredAlu                 0      0.00%     20.22% # attempts to use FU when none available
system.cpu1.iq.fu_full::MemRead                826855     69.76%     89.98% # attempts to use FU when none available
system.cpu1.iq.fu_full::MemWrite               118746     10.02%    100.00% # attempts to use FU when none available
[...]
system.cpu1.dcache.ReadReq_mshr_miss_rate::total     0.054578                       # mshr miss rate for ReadReq accesses
system.cpu1.dcache.ReadReq_avg_mshr_miss_latency::.cpu1.data 73186.967980                       # average ReadReq mshr miss latency
system.cpu1.dcache.ReadReq_avg_mshr_miss_latency::total 73186.967980                       # average ReadReq mshr miss latency
system.cpu1.dcache.WriteReq_hits::.cpu1.data      1090039                       # number of WriteReq hits
system.cpu1.dcache.WriteReq_hits::total       1090039                       # number of WriteReq hits
system.cpu1.dcache.WriteReq_misses::.cpu1.data       284201                       # number of WriteReq misses
system.cpu1.dcache.WriteReq_misses::total       284201                       # number of WriteReq misses
system.cpu1.dcache.WriteReq_miss_latency::.cpu1.data  17271814353                       # number of WriteReq miss cycles
system.cpu1.dcache.WriteReq_miss_latency::total  17271814353                       # number of WriteReq miss cycles
system.cpu1.dcache.WriteReq_accesses::.cpu1.data      1374240                       # number of WriteReq accesses(hits+misses)
system.cpu1.dcache.WriteReq_accesses::total      1374240                       # number of WriteReq accesses(hits+misses)
system.cpu1.dcache.WriteReq_miss_rate::.cpu1.data     0.206806                       # miss rate for WriteReq accesses
system.cpu1.dcache.WriteReq_miss_rate::total     0.206806                       # miss rate for WriteReq accesses
system.cpu1.dcache.WriteReq_avg_miss_latency::.cpu1.data 60773.235678                       # average WriteReq miss latency
system.cpu1.dcache.WriteReq_avg_miss_latency::total 60773.235678                       # average WriteReq miss latency
system.cpu1.dcache.WriteReq_mshr_hits::.cpu1.data       217960                       # number of WriteReq MSHR hits
system.cpu1.dcache.WriteReq_mshr_hits::total       217960                       # number of WriteReq MSHR hits
system.cpu1.dcache.WriteReq_mshr_misses::.cpu1.data        66241                       # number of WriteReq MSHR misses
system.cpu1.dcache.WriteReq_mshr_misses::total        66241                       # number of WriteReq MSHR misses
system.cpu1.dcache.WriteReq_mshr_miss_latency::.cpu1.data   4588377157                       # number of WriteReq MSHR miss cycles
system.cpu1.dcache.WriteReq_mshr_miss_latency::total   4588377157                       # number of WriteReq MSHR miss cycles
system.cpu1.dcache.WriteReq_mshr_miss_rate::.cpu1.data     0.048202                       # mshr miss rate for WriteReq accesses
system.cpu1.dcache.WriteReq_mshr_miss_rate::total     0.048202                       # mshr miss rate for WriteReq accesses
system.cpu1.dcache.WriteReq_avg_mshr_miss_latency::.cpu1.data 69267.933108                       # average WriteReq mshr miss latency
system.cpu1.dcache.WriteReq_avg_mshr_miss_latency::total 69267.933108                       # average WriteReq mshr miss latency
system.cpu1.dcache.LoadLockedReq_hits::.cpu1.data        47372                       # number of LoadLockedReq hits
system.cpu1.dcache.LoadLockedReq_hits::total        47372                       # number of LoadLockedReq hits
system.cpu1.dcache.LoadLockedReq_misses::.cpu1.data          818                       # number of LoadLockedReq misses
system.cpu1.dcache.LoadLockedReq_misses::total          818                       # number of LoadLockedReq misses
system.cpu1.dcache.LoadLockedReq_miss_latency::.cpu1.data     37269500                       # number of LoadLockedReq miss cycles
system.cpu1.dcache.LoadLockedReq_miss_latency::total     37269500                       # number of LoadLockedReq miss cycles
system.cpu1.dcache.LoadLockedReq_accesses::.cpu1.data        48190                       # number of LoadLockedReq accesses(hits+misses)
system.cpu1.dcache.LoadLockedReq_accesses::total        48190                       # number of LoadLockedReq accesses(hits+misses)
system.cpu1.dcache.LoadLockedReq_miss_rate::.cpu1.data     0.016974                       # miss rate for LoadLockedReq accesses
system.cpu1.dcache.LoadLockedReq_miss_rate::total     0.016974                       # miss rate for LoadLockedReq accesses
system.cpu1.dcache.LoadLockedReq_avg_miss_latency::.cpu1.data 45561.735941                       # average LoadLockedReq miss latency
system.cpu1.dcache.LoadLockedReq_avg_miss_latency::total 45561.735941                       # average LoadLockedReq miss latency
system.cpu1.dcache.LoadLockedReq_mshr_hits::.cpu1.data          216                       # number of LoadLockedReq MSHR hits
system.cpu1.dcache.LoadLockedReq_mshr_hits::total          216                       # number of LoadLockedReq MSHR hits
system.cpu1.dcache.LoadLockedReq_mshr_misses::.cpu1.data          602                       # number of LoadLockedReq MSHR misses
system.cpu1.dcache.LoadLockedReq_mshr_misses::total          602                       # number of LoadLockedReq MSHR misses
system.cpu1.dcache.LoadLockedReq_mshr_miss_latency::.cpu1.data     21388000                       # number of LoadLockedReq MSHR miss cycles
system.cpu1.dcache.LoadLockedReq_mshr_miss_latency::total     21388000                       # number of LoadLockedReq MSHR miss cycles
system.cpu1.dcache.LoadLockedReq_mshr_miss_rate::.cpu1.data     0.012492                       # mshr miss rate for LoadLockedReq accesses
system.cpu1.dcache.LoadLockedReq_mshr_miss_rate::total     0.012492                       # mshr miss rate for LoadLockedReq accesses
system.cpu1.dcache.LoadLockedReq_avg_mshr_miss_latency::.cpu1.data 35528.239203                       # average LoadLockedReq mshr miss latency
system.cpu1.dcache.LoadLockedReq_avg_mshr_miss_latency::total 35528.239203                       # average LoadLockedReq mshr miss latency
system.cpu1.dcache.StoreCondReq_hits::.cpu1.data        42939                       # number of StoreCondReq hits
system.cpu1.dcache.StoreCondReq_hits::total        42939                       # number of StoreCondReq hits
system.cpu1.dcache.StoreCondReq_misses::.cpu1.data         4854                       # number of StoreCondReq misses
system.cpu1.dcache.StoreCondReq_misses::total         4854                       # number of StoreCondReq misses
system.cpu1.dcache.StoreCondReq_miss_latency::.cpu1.data     28833000                       # number of StoreCondReq miss cycles
system.cpu1.dcache.StoreCondReq_miss_latency::total     28833000                       # number of StoreCondReq miss cycles
system.cpu1.dcache.StoreCondReq_accesses::.cpu1.data        47793                       # number of StoreCondReq accesses(hits+misses)
system.cpu1.dcache.StoreCondReq_accesses::total        47793                       # number of StoreCondReq accesses(hits+misses)
system.cpu1.dcache.StoreCondReq_miss_rate::.cpu1.data     0.101563                       # miss rate for StoreCondReq accesses
system.cpu1.dcache.StoreCondReq_miss_rate::total     0.101563                       # miss rate for StoreCondReq accesses
system.cpu1.dcache.StoreCondReq_avg_miss_latency::.cpu1.data  5940.049444                       # average StoreCondReq miss latency
system.cpu1.dcache.StoreCondReq_avg_miss_latency::total  5940.049444                       # average StoreCondReq miss latency
system.cpu1.dcache.StoreCondReq_mshr_misses::.cpu1.data         4792                       # number of StoreCondReq MSHR misses
system.cpu1.dcache.StoreCondReq_mshr_misses::total         4792                       # number of StoreCondReq MSHR misses
system.cpu1.dcache.StoreCondReq_mshr_miss_latency::.cpu1.data     24077000                       # number of StoreCondReq MSHR miss cycles
system.cpu1.dcache.StoreCondReq_mshr_miss_latency::total     24077000                       # number of StoreCondReq MSHR miss cycles
system.cpu1.dcache.StoreCondReq_mshr_miss_rate::.cpu1.data     0.100266                       # mshr miss rate for StoreCondReq accesses
system.cpu1.dcache.StoreCondReq_mshr_miss_rate::total     0.100266                       # mshr miss rate for StoreCondReq accesses
system.cpu1.dcache.StoreCondReq_avg_mshr_miss_latency::.cpu1.data  5024.415693                       # average StoreCondReq mshr miss latency
system.cpu1.dcache.StoreCondReq_avg_mshr_miss_latency::total  5024.415693                       # average StoreCondReq mshr miss latency
system.cpu1.dcache.StoreCondFailReq_miss_latency::.cpu1.data       637000                       # number of StoreCondFailReq miss cycles
system.cpu1.dcache.StoreCondFailReq_miss_latency::total       637000                       # number of StoreCondFailReq miss cycles
system.cpu1.dcache.StoreCondFailReq_avg_miss_latency::.cpu1.data          inf                       # average StoreCondFailReq miss latency
system.cpu1.dcache.StoreCondFailReq_avg_miss_latency::total          inf                       # average StoreCondFailReq miss latency
system.cpu1.dcache.StoreCondFailReq_mshr_miss_latency::.cpu1.data       601000                       # number of StoreCondFailReq MSHR miss cycles
system.cpu1.dcache.StoreCondFailReq_mshr_miss_latency::total       601000                       # number of StoreCondFailReq MSHR miss cycles
system.cpu1.dcache.StoreCondFailReq_avg_mshr_miss_latency::.cpu1.data          inf                       # average StoreCondFailReq mshr miss latency
system.cpu1.dcache.StoreCondFailReq_avg_mshr_miss_latency::total          inf                       # average StoreCondFailReq mshr miss latency
system.cpu1.dcache.SwapReq_hits::.cpu1.data         1502                       # number of SwapReq hits
system.cpu1.dcache.SwapReq_hits::total           1502                       # number of SwapReq hits
system.cpu1.dcache.SwapReq_misses::.cpu1.data         2914                       # number of SwapReq misses
system.cpu1.dcache.SwapReq_misses::total         2914                       # number of SwapReq misses
system.cpu1.dcache.SwapReq_miss_latency::.cpu1.data    130020500                       # number of SwapReq miss cycles
system.cpu1.dcache.SwapReq_miss_latency::total    130020500                       # number of SwapReq miss cycles
system.cpu1.dcache.SwapReq_accesses::.cpu1.data         4416                       # number of SwapReq accesses(hits+misses)
system.cpu1.dcache.SwapReq_accesses::total         4416                       # number of SwapReq accesses(hits+misses)
system.cpu1.dcache.SwapReq_miss_rate::.cpu1.data     0.659873                       # miss rate for SwapReq accesses
system.cpu1.dcache.SwapReq_miss_rate::total     0.659873                       # miss rate for SwapReq accesses
system.cpu1.dcache.SwapReq_avg_miss_latency::.cpu1.data 44619.251887                       # average SwapReq miss latency
system.cpu1.dcache.SwapReq_avg_miss_latency::total 44619.251887                       # average SwapReq miss latency
system.cpu1.dcache.SwapReq_mshr_misses::.cpu1.data         2914                       # number of SwapReq MSHR misses
system.cpu1.dcache.SwapReq_mshr_misses::total         2914                       # number of SwapReq MSHR misses
system.cpu1.dcache.SwapReq_mshr_miss_latency::.cpu1.data    127106500                       # number of SwapReq MSHR miss cycles
system.cpu1.dcache.SwapReq_mshr_miss_latency::total    127106500                       # number of SwapReq MSHR miss cycles
system.cpu1.dcache.SwapReq_mshr_miss_rate::.cpu1.data     0.659873                       # mshr miss rate for SwapReq accesses
system.cpu1.dcache.SwapReq_mshr_miss_rate::total     0.659873                       # mshr miss rate for SwapReq accesses
system.cpu1.dcache.SwapReq_avg_mshr_miss_latency::.cpu1.data 43619.251887                       # average SwapReq mshr miss latency
system.cpu1.dcache.SwapReq_avg_mshr_miss_latency::total 43619.251887                       # average SwapReq mshr miss latency
system.cpu1.dcache.tags.pwrStateResidencyTicks::UNDEFINED  69855818500                       # Cumulative time (in ticks) in various power states
system.cpu1.dcache.tags.tagsinuse           31.394665                       # Cycle average of tags in use
system.cpu1.dcache.tags.total_refs           18337357                       # Total number of references to valid blocks.
system.cpu1.dcache.tags.sampled_refs          1242714                       # Sample count of references to valid blocks.
system.cpu1.dcache.tags.avg_refs            14.755895                       # Average number of references to valid blocks.
system.cpu1.dcache.tags.warmup_cycle                0                       # Cycle when the warmup percentage was hit.
system.cpu1.dcache.tags.occ_blocks::.cpu1.data    31.394665                       # Average occupied blocks per requestor
system.cpu1.dcache.tags.occ_percent::.cpu1.data     0.981083                       # Average percentage of cache occupancy
system.cpu1.dcache.tags.occ_percent::total     0.981083                       # Average percentage of cache occupancy
system.cpu1.dcache.tags.occ_task_id_blocks::1024           28                       # Occupied blocks per task id
system.cpu1.dcache.tags.age_task_id_blocks_1024::1           28                       # Occupied blocks per task id
system.cpu1.dcache.tags.occ_task_id_percent::1024     0.875000                       # Percentage of cache occupancy per task id
system.cpu1.dcache.tags.tag_accesses         47615501                       # Number of tag accesses
system.cpu1.dcache.tags.data_accesses        47615501                       # Number of data accesses
system.cpu_clk_domain.clock                       500                       # Clock period in ticks
system.tol2bus.pwrStateResidencyTicks::UNDEFINED  69855818500                       # Cumulative time (in ticks) in various power states
system.tol2bus.trans_dist::ReadResp           2573565                       # Transaction distribution
system.tol2bus.trans_dist::WritebackDirty       807933                       # Transaction distribution
system.tol2bus.trans_dist::WritebackClean      2229326                       # Transaction distribution
system.tol2bus.trans_dist::CleanEvict         3460778                       # Transaction distribution
system.tol2bus.trans_dist::UpgradeReq           25049                       # Transaction distribution
system.tol2bus.trans_dist::SCUpgradeReq         10317                       # Transaction distribution
system.tol2bus.trans_dist::UpgradeResp          35366                       # Transaction distribution
system.tol2bus.trans_dist::SCUpgradeFailReq           75                       # Transaction distribution
system.tol2bus.trans_dist::UpgradeFailResp           75                       # Transaction distribution
system.tol2bus.trans_dist::ReadExReq           140362                       # Transaction distribution
system.tol2bus.trans_dist::ReadExResp          140363                       # Transaction distribution
system.tol2bus.trans_dist::ReadCleanReq        131129                       # Transaction distribution
system.tol2bus.trans_dist::ReadSharedReq      2442436                       # Transaction distribution
system.tol2bus.trans_dist::InvalidateReq           61                       # Transaction distribution
system.tol2bus.trans_dist::InvalidateResp           61                       # Transaction distribution
system.tol2bus.pkt_count_system.cpu0.icache.mem_side::system.l2.cpu_side       328014                       # Packet count per connected master and slave (bytes)
system.tol2bus.pkt_count_system.cpu0.dcache.mem_side::system.l2.cpu_side      3999413                       # Packet count per connected master and slave (bytes)
system.tol2bus.pkt_count_system.cpu1.icache.mem_side::system.l2.cpu_side        65373                       # Packet count per connected master and slave (bytes)
system.tol2bus.pkt_count_system.cpu1.dcache.mem_side::system.l2.cpu_side      3704629                       # Packet count per connected master and slave (bytes)
system.tol2bus.pkt_count::total               8097429                       # Packet count per connected master and slave (bytes)
system.tol2bus.pkt_size_system.cpu0.icache.mem_side::system.l2.cpu_side     13995264                       # Cumulative packet size per connected master and slave (bytes)
system.tol2bus.pkt_size_system.cpu0.dcache.mem_side::system.l2.cpu_side    168823488                       # Cumulative packet size per connected master and slave (bytes)
system.tol2bus.pkt_size_system.cpu1.icache.mem_side::system.l2.cpu_side      2789248                       # Cumulative packet size per connected master and slave (bytes)
system.tol2bus.pkt_size_system.cpu1.dcache.mem_side::system.l2.cpu_side    156283264                       # Cumulative packet size per connected master and slave (bytes)
system.tol2bus.pkt_size::total              341891264                       # Cumulative packet size per connected master and slave (bytes)
system.tol2bus.snoops                         3899467                       # Total snoops (count)
system.tol2bus.snoopTraffic                  26189504                       # Total snoop traffic (bytes)
system.tol2bus.snoop_fanout::samples          6576311                       # Request fanout histogram
system.tol2bus.snoop_fanout::mean            0.336917                       # Request fanout histogram
system.tol2bus.snoop_fanout::stdev           0.505155                       # Request fanout histogram
system.tol2bus.snoop_fanout::underflows             0      0.00%      0.00% # Request fanout histogram
system.tol2bus.snoop_fanout::0                4465129     67.90%     67.90% # Request fanout histogram
system.tol2bus.snoop_fanout::1                2006691     30.51%     98.41% # Request fanout histogram
system.tol2bus.snoop_fanout::2                 104491      1.59%    100.00% # Request fanout histogram
system.tol2bus.snoop_fanout::3                      0      0.00%    100.00% # Request fanout histogram
system.tol2bus.snoop_fanout::4                      0      0.00%    100.00% # Request fanout histogram
system.tol2bus.snoop_fanout::5                      0      0.00%    100.00% # Request fanout histogram
system.tol2bus.snoop_fanout::6                      0      0.00%    100.00% # Request fanout histogram
system.tol2bus.snoop_fanout::7                      0      0.00%    100.00% # Request fanout histogram
system.tol2bus.snoop_fanout::8                      0      0.00%    100.00% # Request fanout histogram
system.tol2bus.snoop_fanout::overflows              0      0.00%    100.00% # Request fanout histogram
system.tol2bus.snoop_fanout::min_value              0                       # Request fanout histogram
system.tol2bus.snoop_fanout::max_value              2                       # Request fanout histogram
system.tol2bus.snoop_fanout::total            6576311                       # Request fanout histogram
system.tol2bus.reqLayer0.occupancy         5382441507                       # Layer occupancy (ticks)
system.tol2bus.reqLayer0.utilization              7.7                       # Layer utilization (%)
system.tol2bus.respLayer1.occupancy        2022040538                       # Layer occupancy (ticks)
system.tol2bus.respLayer1.utilization             2.9                       # Layer utilization (%)
system.tol2bus.respLayer0.occupancy         164940130                       # Layer occupancy (ticks)
system.tol2bus.respLayer0.utilization             0.2                       # Layer utilization (%)
system.tol2bus.respLayer3.occupancy        1875300032                       # Layer occupancy (ticks)
system.tol2bus.respLayer3.utilization             2.7                       # Layer utilization (%)
system.tol2bus.respLayer2.occupancy          32949972                       # Layer occupancy (ticks)
system.tol2bus.respLayer2.utilization             0.0                       # Layer utilization (%)

---------- End Simulation Statistics   ----------
