
---------- Begin Simulation Statistics ----------
final_tick                               863408542000                       # Number of ticks from beginning of simulation (restored from checkpoints and never reset)
host_inst_rate                                  97977                       # Simulator instruction rate (inst/s)
host_mem_usage                                 739256                       # Number of bytes of host memory used
host_op_rate                                    98293                       # Simulator op (including micro ops) rate (op/s)
host_seconds                                 10395.40                       # Real time elapsed on the host
host_tick_rate                               83056820                       # Simulator tick rate (ticks/s)
sim_freq                                 1000000000000                       # Frequency of simulated ticks
sim_insts                                  1018514533                       # Number of instructions simulated
sim_ops                                    1021796160                       # Number of ops (including micro ops) simulated
sim_seconds                                  0.863409                       # Number of seconds simulated
sim_ticks                                863408542000                       # Number of ticks simulated
system.cpu0.branchPred.BTBCorrect                   0                       # Number of correct BTB predictions (this stat may not work properly.
system.cpu0.branchPred.BTBHitPct            86.468824                       # BTB Hit Percentage
system.cpu0.branchPred.BTBHits              116482946                       # Number of BTB hits
system.cpu0.branchPred.BTBLookups           134710917                       # Number of BTB lookups
system.cpu0.branchPred.RASInCorrect                 0                       # Number of incorrect RAS predictions.
system.cpu0.branchPred.condIncorrect          8143942                       # Number of conditional branches incorrect
system.cpu0.branchPred.condPredicted        186143318                       # Number of conditional branches predicted
system.cpu0.branchPred.indirectHits          15839881                       # Number of indirect target hits.
system.cpu0.branchPred.indirectLookups       15940184                       # Number of indirect predictor lookups.
system.cpu0.branchPred.indirectMisses          100303                       # Number of indirect misses.
system.cpu0.branchPred.lookups              236324933                       # Number of BP lookups
system.cpu0.branchPred.usedRAS                      0                       # Number of times the RAS was used to get a target.
system.cpu0.branchPredindirectMispredicted      1663150                       # Number of mispredicted indirect branches.
system.cpu0.commit.amos                        819873                       # Number of atomic instructions committed
system.cpu0.commit.branchMispredicts          5623607                       # The number of times a branch was mispredicted
system.cpu0.commit.branches                 221014812                       # Number of branches committed
system.cpu0.commit.bw_lim_events             29304201                       # number cycles where commit BW limit reached
system.cpu0.commit.commitNonSpecStalls        2466176                       # The number of times commit has been forced to stall to communicate backwards
system.cpu0.commit.commitSquashedInsts       56282793                       # The number of squashed insts skipped by commit
system.cpu0.commit.committedInsts           892404318                       # Number of instructions committed
system.cpu0.commit.committedOps             893226417                       # Number of ops (including micro ops) committed
system.cpu0.commit.committed_per_cycle::samples   1553846896                       # Number of insts commited each cycle
system.cpu0.commit.committed_per_cycle::mean     0.574848                       # Number of insts commited each cycle
system.cpu0.commit.committed_per_cycle::stdev     1.359563                       # Number of insts commited each cycle
system.cpu0.commit.committed_per_cycle::underflows            0      0.00%      0.00% # Number of insts commited each cycle
system.cpu0.commit.committed_per_cycle::0   1117840608     71.94%     71.94% # Number of insts commited each cycle
system.cpu0.commit.committed_per_cycle::1    271883800     17.50%     89.44% # Number of insts commited each cycle
system.cpu0.commit.committed_per_cycle::2     53395025      3.44%     92.87% # Number of insts commited each cycle
system.cpu0.commit.committed_per_cycle::3     59066248      3.80%     96.68% # Number of insts commited each cycle
system.cpu0.commit.committed_per_cycle::4     13908801      0.90%     97.57% # Number of insts commited each cycle
system.cpu0.commit.committed_per_cycle::5      5333358      0.34%     97.91% # Number of insts commited each cycle
system.cpu0.commit.committed_per_cycle::6      1185764      0.08%     97.99% # Number of insts commited each cycle
system.cpu0.commit.committed_per_cycle::7      1929091      0.12%     98.11% # Number of insts commited each cycle
system.cpu0.commit.committed_per_cycle::8     29304201      1.89%    100.00% # Number of insts commited each cycle
system.cpu0.commit.committed_per_cycle::overflows            0      0.00%    100.00% # Number of insts commited each cycle
system.cpu0.commit.committed_per_cycle::min_value            0                       # Number of insts commited each cycle
system.cpu0.commit.committed_per_cycle::max_value            8                       # Number of insts commited each cycle
system.cpu0.commit.committed_per_cycle::total   1553846896                       # Number of insts commited each cycle
system.cpu0.commit.fp_insts                        46                       # Number of committed floating point instructions.
system.cpu0.commit.function_calls            18341016                       # Number of function calls committed.
system.cpu0.commit.int_insts                863514606                       # Number of committed integer instructions.
system.cpu0.commit.loads                    280412509                       # Number of loads committed
system.cpu0.commit.membars                    1641861                       # Number of memory barriers committed
system.cpu0.commit.op_class_0::No_OpClass      1641867      0.18%      0.18% # Class of committed instruction
system.cpu0.commit.op_class_0::IntAlu       491117448     54.98%     55.17% # Class of committed instruction
system.cpu0.commit.op_class_0::IntMult        7835016      0.88%     56.04% # Class of committed instruction
system.cpu0.commit.op_class_0::IntDiv         1638713      0.18%     56.23% # Class of committed instruction
system.cpu0.commit.op_class_0::FloatAdd             0      0.00%     56.23% # Class of committed instruction
system.cpu0.commit.op_class_0::FloatCmp             4      0.00%     56.23% # Class of committed instruction
system.cpu0.commit.op_class_0::FloatCvt            12      0.00%     56.23% # Class of committed instruction
system.cpu0.commit.op_class_0::FloatMult            0      0.00%     56.23% # Class of committed instruction
system.cpu0.commit.op_class_0::FloatMultAcc            0      0.00%     56.23% # Class of committed instruction
system.cpu0.commit.op_class_0::FloatDiv             2      0.00%     56.23% # Class of committed instruction
system.cpu0.commit.op_class_0::FloatMisc            4      0.00%     56.23% # Class of committed instruction
system.cpu0.commit.op_class_0::FloatSqrt            0      0.00%     56.23% # Class of committed instruction
system.cpu0.commit.op_class_0::SimdAdd              0      0.00%     56.23% # Class of committed instruction
system.cpu0.commit.op_class_0::SimdAddAcc            0      0.00%     56.23% # Class of committed instruction
system.cpu0.commit.op_class_0::SimdAlu              0      0.00%     56.23% # Class of committed instruction
system.cpu0.commit.op_class_0::SimdCmp              0      0.00%     56.23% # Class of committed instruction
system.cpu0.commit.op_class_0::SimdCvt              0      0.00%     56.23% # Class of committed instruction
system.cpu0.commit.op_class_0::SimdMisc             0      0.00%     56.23% # Class of committed instruction
system.cpu0.commit.op_class_0::SimdMult             0      0.00%     56.23% # Class of committed instruction
system.cpu0.commit.op_class_0::SimdMultAcc            0      0.00%     56.23% # Class of committed instruction
system.cpu0.commit.op_class_0::SimdShift            0      0.00%     56.23% # Class of committed instruction
system.cpu0.commit.op_class_0::SimdShiftAcc            0      0.00%     56.23% # Class of committed instruction
system.cpu0.commit.op_class_0::SimdDiv              0      0.00%     56.23% # Class of committed instruction
system.cpu0.commit.op_class_0::SimdSqrt             0      0.00%     56.23% # Class of committed instruction
system.cpu0.commit.op_class_0::SimdFloatAdd            0      0.00%     56.23% # Class of committed instruction
system.cpu0.commit.op_class_0::SimdFloatAlu            0      0.00%     56.23% # Class of committed instruction
system.cpu0.commit.op_class_0::SimdFloatCmp            0      0.00%     56.23% # Class of committed instruction
system.cpu0.commit.op_class_0::SimdFloatCvt            0      0.00%     56.23% # Class of committed instruction
system.cpu0.commit.op_class_0::SimdFloatDiv            0      0.00%     56.23% # Class of committed instruction
system.cpu0.commit.op_class_0::SimdFloatMisc            0      0.00%     56.23% # Class of committed instruction
system.cpu0.commit.op_class_0::SimdFloatMult            0      0.00%     56.23% # Class of committed instruction
system.cpu0.commit.op_class_0::SimdFloatMultAcc            0      0.00%     56.23% # Class of committed instruction
system.cpu0.commit.op_class_0::SimdFloatSqrt            0      0.00%     56.23% # Class of committed instruction
system.cpu0.commit.op_class_0::SimdReduceAdd            0      0.00%     56.23% # Class of committed instruction
system.cpu0.commit.op_class_0::SimdReduceAlu            0      0.00%     56.23% # Class of committed instruction
system.cpu0.commit.op_class_0::SimdReduceCmp            0      0.00%     56.23% # Class of committed instruction
system.cpu0.commit.op_class_0::SimdFloatReduceAdd            0      0.00%     56.23% # Class of committed instruction
system.cpu0.commit.op_class_0::SimdFloatReduceCmp            0      0.00%     56.23% # Class of committed instruction
system.cpu0.commit.op_class_0::SimdAes              0      0.00%     56.23% # Class of committed instruction
system.cpu0.commit.op_class_0::SimdAesMix            0      0.00%     56.23% # Class of committed instruction
system.cpu0.commit.op_class_0::SimdSha1Hash            0      0.00%     56.23% # Class of committed instruction
system.cpu0.commit.op_class_0::SimdSha1Hash2            0      0.00%     56.23% # Class of committed instruction
system.cpu0.commit.op_class_0::SimdSha256Hash            0      0.00%     56.23% # Class of committed instruction
system.cpu0.commit.op_class_0::SimdSha256Hash2            0      0.00%     56.23% # Class of committed instruction
system.cpu0.commit.op_class_0::SimdShaSigma2            0      0.00%     56.23% # Class of committed instruction
system.cpu0.commit.op_class_0::SimdShaSigma3            0      0.00%     56.23% # Class of committed instruction
system.cpu0.commit.op_class_0::SimdPredAlu            0      0.00%     56.23% # Class of committed instruction
system.cpu0.commit.op_class_0::MemRead      281232374     31.49%     87.71% # Class of committed instruction
system.cpu0.commit.op_class_0::MemWrite     109760953     12.29%    100.00% # Class of committed instruction
system.cpu0.commit.op_class_0::FloatMemRead            8      0.00%    100.00% # Class of committed instruction
system.cpu0.commit.op_class_0::FloatMemWrite           16      0.00%    100.00% # Class of committed instruction
system.cpu0.commit.op_class_0::IprAccess            0      0.00%    100.00% # Class of committed instruction
system.cpu0.commit.op_class_0::InstPrefetch            0      0.00%    100.00% # Class of committed instruction
system.cpu0.commit.op_class_0::total        893226417                       # Class of committed instruction
system.cpu0.commit.refs                     390993351                       # Number of memory references committed
system.cpu0.commit.swp_count                        0                       # Number of s/w prefetches committed
system.cpu0.commit.vec_insts                        0                       # Number of committed Vector instructions.
system.cpu0.committedInsts                  892404318                       # Number of Instructions Simulated
system.cpu0.committedOps                    893226417                       # Number of Ops (including micro ops) Simulated
system.cpu0.cpi                              1.905760                       # CPI: Cycles Per Instruction
system.cpu0.cpi_total                        1.905760                       # CPI: Total CPI of All Threads
system.cpu0.decode.BlockedCycles            179279722                       # Number of cycles decode is blocked
system.cpu0.decode.BranchMispred              2524366                       # Number of times decode detected a branch misprediction
system.cpu0.decode.BranchResolved           115560432                       # Number of times decode resolved a branch
system.cpu0.decode.DecodedInsts             964987515                       # Number of instructions handled by decode
system.cpu0.decode.IdleCycles               695128310                       # Number of cycles decode is idle
system.cpu0.decode.RunCycles                681974423                       # Number of cycles decode is running
system.cpu0.decode.SquashCycles               5632741                       # Number of cycles decode is squashing
system.cpu0.decode.SquashedInsts              3994750                       # Number of squashed instructions handled by decode
system.cpu0.decode.UnblockCycles              2751706                       # Number of cycles decode is unblocking
system.cpu0.dtb.accesses                            0                       # DTB accesses
system.cpu0.dtb.hits                                0                       # DTB hits
system.cpu0.dtb.misses                              0                       # DTB misses
system.cpu0.dtb.read_accesses                       0                       # DTB read accesses
system.cpu0.dtb.read_hits                           0                       # DTB read hits
system.cpu0.dtb.read_misses                         0                       # DTB read misses
system.cpu0.dtb.write_accesses                      0                       # DTB write accesses
system.cpu0.dtb.write_hits                          0                       # DTB write hits
system.cpu0.dtb.write_misses                        0                       # DTB write misses
system.cpu0.fetch.Branches                  236324933                       # Number of branches that fetch encountered
system.cpu0.fetch.CacheLines                170083808                       # Number of cache lines fetched
system.cpu0.fetch.Cycles                    866539235                       # Number of cycles fetch has run and was not squashing or blocked
system.cpu0.fetch.IcacheSquashes              3910026                       # Number of outstanding Icache misses that were squashed
system.cpu0.fetch.IcacheWaitRetryStallCycles          140                       # Number of stall cycles due to full MSHR
system.cpu0.fetch.Insts                     980969812                       # Number of instructions fetch has processed
system.cpu0.fetch.MiscStallCycles                  13                       # Number of cycles fetch has spent waiting on interrupts, or bad addresses, or out of MSHRs
system.cpu0.fetch.SquashCycles               16306152                       # Number of cycles fetch has spent squashing
system.cpu0.fetch.branchRate                 0.138957                       # Number of branch fetches per cycle
system.cpu0.fetch.icacheStallCycles         690074438                       # Number of cycles fetch is stalled on an Icache miss
system.cpu0.fetch.predictedBranches         132322827                       # Number of branches that fetch has predicted taken
system.cpu0.fetch.rate                       0.576801                       # Number of inst fetches per cycle
system.cpu0.fetch.rateDist::samples        1564766902                       # Number of instructions fetched each cycle (Total)
system.cpu0.fetch.rateDist::mean             0.628850                       # Number of instructions fetched each cycle (Total)
system.cpu0.fetch.rateDist::stdev            0.897831                       # Number of instructions fetched each cycle (Total)
system.cpu0.fetch.rateDist::underflows              0      0.00%      0.00% # Number of instructions fetched each cycle (Total)
system.cpu0.fetch.rateDist::0               861869392     55.08%     55.08% # Number of instructions fetched each cycle (Total)
system.cpu0.fetch.rateDist::1               523884900     33.48%     88.56% # Number of instructions fetched each cycle (Total)
system.cpu0.fetch.rateDist::2               108530876      6.94%     95.50% # Number of instructions fetched each cycle (Total)
system.cpu0.fetch.rateDist::3                56604310      3.62%     99.11% # Number of instructions fetched each cycle (Total)
system.cpu0.fetch.rateDist::4                 5022280      0.32%     99.43% # Number of instructions fetched each cycle (Total)
system.cpu0.fetch.rateDist::5                 4956290      0.32%     99.75% # Number of instructions fetched each cycle (Total)
system.cpu0.fetch.rateDist::6                  586914      0.04%     99.79% # Number of instructions fetched each cycle (Total)
system.cpu0.fetch.rateDist::7                 1643674      0.11%     99.89% # Number of instructions fetched each cycle (Total)
system.cpu0.fetch.rateDist::8                 1668266      0.11%    100.00% # Number of instructions fetched each cycle (Total)
system.cpu0.fetch.rateDist::overflows               0      0.00%    100.00% # Number of instructions fetched each cycle (Total)
system.cpu0.fetch.rateDist::min_value               0                       # Number of instructions fetched each cycle (Total)
system.cpu0.fetch.rateDist::max_value               8                       # Number of instructions fetched each cycle (Total)
system.cpu0.fetch.rateDist::total          1564766902                       # Number of instructions fetched each cycle (Total)
system.cpu0.fp_regfile_reads                       40                       # number of floating regfile reads
system.cpu0.fp_regfile_writes                      23                       # number of floating regfile writes
system.cpu0.idleCycles                      135941751                       # Total number of cycles that the CPU has spent unscheduled due to idling
system.cpu0.iew.branchMispredicts             5662582                       # Number of branch mispredicts detected at execute
system.cpu0.iew.exec_branches               226902419                       # Number of branches executed
system.cpu0.iew.exec_nop                            0                       # number of nop insts executed
system.cpu0.iew.exec_rate                    0.545760                       # Inst execution rate
system.cpu0.iew.exec_refs                   410548590                       # number of memory reference insts executed
system.cpu0.iew.exec_stores                 112971659                       # Number of stores executed
system.cpu0.iew.exec_swp                            0                       # number of swp insts executed
system.cpu0.iew.iewBlockCycles              156281448                       # Number of cycles IEW is blocking
system.cpu0.iew.iewDispLoadInsts            302552354                       # Number of dispatched load instructions
system.cpu0.iew.iewDispNonSpecInsts           2028117                       # Number of dispatched non-speculative instructions
system.cpu0.iew.iewDispSquashedInsts          2158986                       # Number of squashed instructions skipped by dispatch
system.cpu0.iew.iewDispStoreInsts           117181174                       # Number of dispatched store instructions
system.cpu0.iew.iewDispatchedInsts          949500346                       # Number of instructions dispatched to IQ
system.cpu0.iew.iewExecLoadInsts            297576931                       # Number of load instructions executed
system.cpu0.iew.iewExecSquashedInsts          4591467                       # Number of squashed instructions skipped in execute
system.cpu0.iew.iewExecutedInsts            928178588                       # Number of executed instructions
system.cpu0.iew.iewIQFullEvents                749722                       # Number of times the IQ has become full, causing a stall
system.cpu0.iew.iewIdleCycles                       0                       # Number of cycles IEW is idle
system.cpu0.iew.iewLSQFullEvents              2216999                       # Number of times the LSQ has become full, causing a stall
system.cpu0.iew.iewSquashCycles               5632741                       # Number of cycles IEW is squashing
system.cpu0.iew.iewUnblockCycles              3706491                       # Number of cycles IEW is unblocking
system.cpu0.iew.lsq.thread0.blockedLoads            0                       # Number of blocked loads due to partial load-store forwarding
system.cpu0.iew.lsq.thread0.cacheBlocked        37543                       # Number of times an access to memory failed due to the cache being blocked
system.cpu0.iew.lsq.thread0.forwLoads        16362056                       # Number of loads that had data forwarded from stores
system.cpu0.iew.lsq.thread0.ignoredResponses        13512                       # Number of memory responses ignored because the instruction is squashed
system.cpu0.iew.lsq.thread0.invAddrLoads            0                       # Number of loads ignored due to an invalid address
system.cpu0.iew.lsq.thread0.invAddrSwpfs            0                       # Number of software prefetches ignored due to an invalid address
system.cpu0.iew.lsq.thread0.memOrderViolation         9613                       # Number of memory ordering violations
system.cpu0.iew.lsq.thread0.rescheduledLoads      3739780                       # Number of loads that were rescheduled
system.cpu0.iew.lsq.thread0.squashedLoads     22139845                       # Number of loads squashed
system.cpu0.iew.lsq.thread0.squashedStores      6600332                       # Number of stores squashed
system.cpu0.iew.memOrderViolationEvents          9613                       # Number of memory order violations
system.cpu0.iew.predictedNotTakenIncorrect       737757                       # Number of branches that were predicted not taken incorrectly
system.cpu0.iew.predictedTakenIncorrect       4924825                       # Number of branches that were predicted taken incorrectly
system.cpu0.iew.wb_consumers                372247852                       # num instructions consuming a value
system.cpu0.iew.wb_count                    920305535                       # cumulative count of insts written-back
system.cpu0.iew.wb_fanout                    0.893897                       # average fanout of values written-back
system.cpu0.iew.wb_producers                332751263                       # num instructions producing a value
system.cpu0.iew.wb_rate                      0.541131                       # insts written-back per cycle
system.cpu0.iew.wb_sent                     920341899                       # cumulative count of insts sent to commit
system.cpu0.int_regfile_reads              1131453336                       # number of integer regfile reads
system.cpu0.int_regfile_writes              588052224                       # number of integer regfile writes
system.cpu0.ipc                              0.524725                       # IPC: Instructions Per Cycle
system.cpu0.ipc_total                        0.524725                       # IPC: Total IPC of All Threads
system.cpu0.iq.FU_type_0::No_OpClass          1643344      0.18%      0.18% # Type of FU issued
system.cpu0.iq.FU_type_0::IntAlu            508088138     54.47%     54.65% # Type of FU issued
system.cpu0.iq.FU_type_0::IntMult             7838404      0.84%     55.49% # Type of FU issued
system.cpu0.iq.FU_type_0::IntDiv              1639152      0.18%     55.66% # Type of FU issued
system.cpu0.iq.FU_type_0::FloatAdd                  0      0.00%     55.66% # Type of FU issued
system.cpu0.iq.FU_type_0::FloatCmp                  4      0.00%     55.66% # Type of FU issued
system.cpu0.iq.FU_type_0::FloatCvt                 12      0.00%     55.66% # Type of FU issued
system.cpu0.iq.FU_type_0::FloatMult                 0      0.00%     55.66% # Type of FU issued
system.cpu0.iq.FU_type_0::FloatMultAcc              0      0.00%     55.66% # Type of FU issued
system.cpu0.iq.FU_type_0::FloatDiv                  2      0.00%     55.66% # Type of FU issued
system.cpu0.iq.FU_type_0::FloatMisc                 4      0.00%     55.66% # Type of FU issued
system.cpu0.iq.FU_type_0::FloatSqrt                 0      0.00%     55.66% # Type of FU issued
system.cpu0.iq.FU_type_0::SimdAdd                   0      0.00%     55.66% # Type of FU issued
system.cpu0.iq.FU_type_0::SimdAddAcc                0      0.00%     55.66% # Type of FU issued
system.cpu0.iq.FU_type_0::SimdAlu                   0      0.00%     55.66% # Type of FU issued
system.cpu0.iq.FU_type_0::SimdCmp                   0      0.00%     55.66% # Type of FU issued
system.cpu0.iq.FU_type_0::SimdCvt                   0      0.00%     55.66% # Type of FU issued
system.cpu0.iq.FU_type_0::SimdMisc                  0      0.00%     55.66% # Type of FU issued
system.cpu0.iq.FU_type_0::SimdMult                  0      0.00%     55.66% # Type of FU issued
system.cpu0.iq.FU_type_0::SimdMultAcc               0      0.00%     55.66% # Type of FU issued
system.cpu0.iq.FU_type_0::SimdShift                 0      0.00%     55.66% # Type of FU issued
system.cpu0.iq.FU_type_0::SimdShiftAcc              0      0.00%     55.66% # Type of FU issued
system.cpu0.iq.FU_type_0::SimdDiv                   0      0.00%     55.66% # Type of FU issued
system.cpu0.iq.FU_type_0::SimdSqrt                  0      0.00%     55.66% # Type of FU issued
system.cpu0.iq.FU_type_0::SimdFloatAdd              0      0.00%     55.66% # Type of FU issued
system.cpu0.iq.FU_type_0::SimdFloatAlu              0      0.00%     55.66% # Type of FU issued
system.cpu0.iq.FU_type_0::SimdFloatCmp              0      0.00%     55.66% # Type of FU issued
system.cpu0.iq.FU_type_0::SimdFloatCvt              0      0.00%     55.66% # Type of FU issued
system.cpu0.iq.FU_type_0::SimdFloatDiv              0      0.00%     55.66% # Type of FU issued
system.cpu0.iq.FU_type_0::SimdFloatMisc             0      0.00%     55.66% # Type of FU issued
system.cpu0.iq.FU_type_0::SimdFloatMult             0      0.00%     55.66% # Type of FU issued
system.cpu0.iq.FU_type_0::SimdFloatMultAcc            0      0.00%     55.66% # Type of FU issued
system.cpu0.iq.FU_type_0::SimdFloatSqrt             0      0.00%     55.66% # Type of FU issued
system.cpu0.iq.FU_type_0::SimdReduceAdd             0      0.00%     55.66% # Type of FU issued
system.cpu0.iq.FU_type_0::SimdReduceAlu             0      0.00%     55.66% # Type of FU issued
system.cpu0.iq.FU_type_0::SimdReduceCmp             0      0.00%     55.66% # Type of FU issued
system.cpu0.iq.FU_type_0::SimdFloatReduceAdd            0      0.00%     55.66% # Type of FU issued
system.cpu0.iq.FU_type_0::SimdFloatReduceCmp            0      0.00%     55.66% # Type of FU issued
system.cpu0.iq.FU_type_0::SimdAes                   0      0.00%     55.66% # Type of FU issued
system.cpu0.iq.FU_type_0::SimdAesMix                0      0.00%     55.66% # Type of FU issued
system.cpu0.iq.FU_type_0::SimdSha1Hash              0      0.00%     55.66% # Type of FU issued
system.cpu0.iq.FU_type_0::SimdSha1Hash2             0      0.00%     55.66% # Type of FU issued
system.cpu0.iq.FU_type_0::SimdSha256Hash            0      0.00%     55.66% # Type of FU issued
system.cpu0.iq.FU_type_0::SimdSha256Hash2            0      0.00%     55.66% # Type of FU issued
system.cpu0.iq.FU_type_0::SimdShaSigma2             0      0.00%     55.66% # Type of FU issued
system.cpu0.iq.FU_type_0::SimdShaSigma3             0      0.00%     55.66% # Type of FU issued
system.cpu0.iq.FU_type_0::SimdPredAlu               0      0.00%     55.66% # Type of FU issued
system.cpu0.iq.FU_type_0::MemRead           300014981     32.16%     87.83% # Type of FU issued
system.cpu0.iq.FU_type_0::MemWrite          113545990     12.17%    100.00% # Type of FU issued
system.cpu0.iq.FU_type_0::FloatMemRead              9      0.00%    100.00% # Type of FU issued
system.cpu0.iq.FU_type_0::FloatMemWrite            16      0.00%    100.00% # Type of FU issued
system.cpu0.iq.FU_type_0::IprAccess                 0      0.00%    100.00% # Type of FU issued
system.cpu0.iq.FU_type_0::InstPrefetch              0      0.00%    100.00% # Type of FU issued
system.cpu0.iq.FU_type_0::total             932770056                       # Type of FU issued
system.cpu0.iq.fp_alu_accesses                     49                       # Number of floating point alu accesses
system.cpu0.iq.fp_inst_queue_reads                 96                       # Number of floating instruction queue reads
system.cpu0.iq.fp_inst_queue_wakeup_accesses           47                       # Number of floating instruction queue wakeup accesses
system.cpu0.iq.fp_inst_queue_writes                48                       # Number of floating instruction queue writes
system.cpu0.iq.fu_busy_cnt                     899574                       # FU busy when requested
system.cpu0.iq.fu_busy_rate                  0.000964                       # FU busy rate (busy events/executed inst)
system.cpu0.iq.fu_full::No_OpClass                  0      0.00%      0.00% # attempts to use FU when none available
system.cpu0.iq.fu_full::IntAlu                 139512     15.51%     15.51% # attempts to use FU when none available
system.cpu0.iq.fu_full::IntMult                     0      0.00%     15.51% # attempts to use FU when none available
system.cpu0.iq.fu_full::IntDiv                      0      0.00%     15.51% # attempts to use FU when none available
system.cpu0.iq.fu_full::FloatAdd                    0      0.00%     15.51% # attempts to use FU when none available
system.cpu0.iq.fu_full::FloatCmp                    0      0.00%     15.51% # attempts to use FU when none available
system.cpu0.iq.fu_full::FloatCvt                    0      0.00%     15.51% # attempts to use FU when none available
system.cpu0.iq.fu_full::FloatMult                   0      0.00%     15.51% # attempts to use FU when none available
system.cpu0.iq.fu_full::FloatMultAcc                0      0.00%     15.51% # attempts to use FU when none available
system.cpu0.iq.fu_full::FloatDiv                    0      0.00%     15.51% # attempts to use FU when none available
system.cpu0.iq.fu_full::FloatMisc                   0      0.00%     15.51% # attempts to use FU when none available
system.cpu0.iq.fu_full::FloatSqrt                   0      0.00%     15.51% # attempts to use FU when none available
system.cpu0.iq.fu_full::SimdAdd                     0      0.00%     15.51% # attempts to use FU when none available
system.cpu0.iq.fu_full::SimdAddAcc                  0      0.00%     15.51% # attempts to use FU when none available
system.cpu0.iq.fu_full::SimdAlu                     0      0.00%     15.51% # attempts to use FU when none available
system.cpu0.iq.fu_full::SimdCmp                     0      0.00%     15.51% # attempts to use FU when none available
system.cpu0.iq.fu_full::SimdCvt                     0      0.00%     15.51% # attempts to use FU when none available
system.cpu0.iq.fu_full::SimdMisc                    0      0.00%     15.51% # attempts to use FU when none available
system.cpu0.iq.fu_full::SimdMult                    0      0.00%     15.51% # attempts to use FU when none available
system.cpu0.iq.fu_full::SimdMultAcc                 0      0.00%     15.51% # attempts to use FU when none available
system.cpu0.iq.fu_full::SimdShift                   0      0.00%     15.51% # attempts to use FU when none available
system.cpu0.iq.fu_full::SimdShiftAcc                0      0.00%     15.51% # attempts to use FU when none available
system.cpu0.iq.fu_full::SimdDiv                     0      0.00%     15.51% # attempts to use FU when none available
system.cpu0.iq.fu_full::SimdSqrt                    0      0.00%     15.51% # attempts to use FU when none available
system.cpu0.iq.fu_full::SimdFloatAdd                0      0.00%     15.51% # attempts to use FU when none available
system.cpu0.iq.fu_full::SimdFloatAlu                0      0.00%     15.51% # attempts to use FU when none available
system.cpu0.iq.fu_full::SimdFloatCmp                0      0.00%     15.51% # attempts to use FU when none available
system.cpu0.iq.fu_full::SimdFloatCvt                0      0.00%     15.51% # attempts to use FU when none available
system.cpu0.iq.fu_full::SimdFloatDiv                0      0.00%     15.51% # attempts to use FU when none available
system.cpu0.iq.fu_full::SimdFloatMisc               0      0.00%     15.51% # attempts to use FU when none available
system.cpu0.iq.fu_full::SimdFloatMult               0      0.00%     15.51% # attempts to use FU when none available
system.cpu0.iq.fu_full::SimdFloatMultAcc            0      0.00%     15.51% # attempts to use FU when none available
system.cpu0.iq.fu_full::SimdFloatSqrt               0      0.00%     15.51% # attempts to use FU when none available
system.cpu0.iq.fu_full::SimdReduceAdd               0      0.00%     15.51% # attempts to use FU when none available
system.cpu0.iq.fu_full::SimdReduceAlu               0      0.00%     15.51% # attempts to use FU when none available
system.cpu0.iq.fu_full::SimdReduceCmp               0      0.00%     15.51% # attempts to use FU when none available
system.cpu0.iq.fu_full::SimdFloatReduceAdd            0      0.00%     15.51% # attempts to use FU when none available
system.cpu0.iq.fu_full::SimdFloatReduceCmp            0      0.00%     15.51% # attempts to use FU when none available
system.cpu0.iq.fu_full::SimdAes                     0      0.00%     15.51% # attempts to use FU when none available
system.cpu0.iq.fu_full::SimdAesMix                  0      0.00%     15.51% # attempts to use FU when none available
system.cpu0.iq.fu_full::SimdSha1Hash                0      0.00%     15.51% # attempts to use FU when none available
system.cpu0.iq.fu_full::SimdSha1Hash2               0      0.00%     15.51% # attempts to use FU when none available
system.cpu0.iq.fu_full::SimdSha256Hash              0      0.00%     15.51% # attempts to use FU when none available
system.cpu0.iq.fu_full::SimdSha256Hash2             0      0.00%     15.51% # attempts to use FU when none available
system.cpu0.iq.fu_full::SimdShaSigma2               0      0.00%     15.51% # attempts to use FU when none available
system.cpu0.iq.fu_full::SimdShaSigma3               0      0.00%     15.51% # attempts to use FU when none available
system.cpu0.iq.fu_full::SimdPredAlu                 0      0.00%     15.51% # attempts to use FU when none available
system.cpu0.iq.fu_full::MemRead                711502     79.09%     94.60% # attempts to use FU when none available
system.cpu0.iq.fu_full::MemWrite                48558      5.40%    100.00% # attempts to use FU when none available
system.cpu0.iq.fu_full::FloatMemRead                0      0.00%    100.00% # attempts to use FU when none available
system.cpu0.iq.fu_full::FloatMemWrite               2      0.00%    100.00% # attempts to use FU when none available
system.cpu0.iq.fu_full::IprAccess                   0      0.00%    100.00% # attempts to use FU when none available
system.cpu0.iq.fu_full::InstPrefetch                0      0.00%    100.00% # attempts to use FU when none available
system.cpu0.iq.int_alu_accesses             932026237                       # Number of integer alu accesses
system.cpu0.iq.int_inst_queue_reads        3431252219                       # Number of integer instruction queue reads
system.cpu0.iq.int_inst_queue_wakeup_accesses    920305488                       # Number of integer instruction queue wakeup accesses
system.cpu0.iq.int_inst_queue_writes       1005782795                       # Number of integer instruction queue writes
system.cpu0.iq.iqInstsAdded                 943436088                       # Number of instructions added to the IQ (excludes non-spec)
system.cpu0.iq.iqInstsIssued                932770056                       # Number of instructions issued
system.cpu0.iq.iqNonSpecInstsAdded            6064258                       # Number of non-speculative instructions added to the IQ
system.cpu0.iq.iqSquashedInstsExamined       56273925                       # Number of squashed instructions iterated over during squash; mainly for profiling
system.cpu0.iq.iqSquashedInstsIssued            45728                       # Number of squashed instructions issued
system.cpu0.iq.iqSquashedNonSpecRemoved       3598082                       # Number of squashed non-spec instructions that were removed
system.cpu0.iq.iqSquashedOperandsExamined     30251316                       # Number of squashed operands that are examined and possibly removed from graph
system.cpu0.iq.issued_per_cycle::samples   1564766902                       # Number of insts issued each cycle
system.cpu0.iq.issued_per_cycle::mean        0.596108                       # Number of insts issued each cycle
system.cpu0.iq.issued_per_cycle::stdev       0.799137                       # Number of insts issued each cycle
system.cpu0.iq.issued_per_cycle::underflows            0      0.00%      0.00% # Number of insts issued each cycle
system.cpu0.iq.issued_per_cycle::0          879239314     56.19%     56.19% # Number of insts issued each cycle
system.cpu0.iq.issued_per_cycle::1          483976445     30.93%     87.12% # Number of insts issued each cycle
system.cpu0.iq.issued_per_cycle::2          167587618     10.71%     97.83% # Number of insts issued each cycle
system.cpu0.iq.issued_per_cycle::3           26633320      1.70%     99.53% # Number of insts issued each cycle
system.cpu0.iq.issued_per_cycle::4            4888089      0.31%     99.84% # Number of insts issued each cycle
system.cpu0.iq.issued_per_cycle::5             693003      0.04%     99.89% # Number of insts issued each cycle
system.cpu0.iq.issued_per_cycle::6            1598312      0.10%     99.99% # Number of insts issued each cycle
system.cpu0.iq.issued_per_cycle::7              95236      0.01%    100.00% # Number of insts issued each cycle
system.cpu0.iq.issued_per_cycle::8              55565      0.00%    100.00% # Number of insts issued each cycle
system.cpu0.iq.issued_per_cycle::overflows            0      0.00%    100.00% # Number of insts issued each cycle
system.cpu0.iq.issued_per_cycle::min_value            0                       # Number of insts issued each cycle
system.cpu0.iq.issued_per_cycle::max_value            8                       # Number of insts issued each cycle
system.cpu0.iq.issued_per_cycle::total     1564766902                       # Number of insts issued each cycle
system.cpu0.iq.rate                          0.548460                       # Inst issue rate
system.cpu0.iq.vec_alu_accesses                     0                       # Number of vector alu accesses
system.cpu0.iq.vec_inst_queue_reads                 0                       # Number of vector instruction queue reads
system.cpu0.iq.vec_inst_queue_wakeup_accesses            0                       # Number of vector instruction queue wakeup accesses
system.cpu0.iq.vec_inst_queue_writes                0                       # Number of vector instruction queue writes
system.cpu0.itb.accesses                            0                       # DTB accesses
system.cpu0.itb.hits                                0                       # DTB hits
system.cpu0.itb.misses                              0                       # DTB misses
system.cpu0.itb.read_accesses                       0                       # DTB read accesses
system.cpu0.itb.read_hits                           0                       # DTB read hits
system.cpu0.itb.read_misses                         0                       # DTB read misses
system.cpu0.itb.write_accesses                      0                       # DTB write accesses
system.cpu0.itb.write_hits                          0                       # DTB write hits
system.cpu0.itb.write_misses                        0                       # DTB write misses
system.cpu0.memDep0.conflictingLoads         15611570                       # Number of conflicting loads.
system.cpu0.memDep0.conflictingStores         2740936                       # Number of conflicting stores.
system.cpu0.memDep0.insertedLoads           302552354                       # Number of loads inserted to the mem dependence unit.
system.cpu0.memDep0.insertedStores          117181174                       # Number of stores inserted to the mem dependence unit.
system.cpu0.misc_regfile_reads                   1510                       # number of misc regfile reads
system.cpu0.misc_regfile_writes                    22                       # number of misc regfile writes
system.cpu0.numCycles                      1700708653                       # number of cpu cycles simulated
system.cpu0.numWorkItemsCompleted                   0                       # number of work items this cpu completed
system.cpu0.numWorkItemsStarted                     0                       # number of work items this cpu started
system.cpu0.quiesceCycles                    26108800                       # Total number of cycles that CPU has spent quiesced or waiting for an interrupt
system.cpu0.rename.BlockCycles              164845261                       # Number of cycles rename is blocking
system.cpu0.rename.CommittedMaps            569159921                       # Number of HB maps that are committed
system.cpu0.rename.IQFullEvents               3645147                       # Number of times rename has blocked due to IQ full
system.cpu0.rename.IdleCycles               701111755                       # Number of cycles rename is idle
system.cpu0.rename.LQFullEvents               5531742                       # Number of times rename has blocked due to LQ full
system.cpu0.rename.ROBFullEvents                 8466                       # Number of times rename has blocked due to ROB full
system.cpu0.rename.RenameLookups           1169014796                       # Number of register rename lookups that rename has made
system.cpu0.rename.RenamedInsts             958513966                       # Number of instructions processed by rename
system.cpu0.rename.RenamedOperands          614450635                       # Number of destination operands rename has renamed
system.cpu0.rename.RunCycles                677599779                       # Number of cycles rename is running
system.cpu0.rename.SQFullEvents               5335046                       # Number of times rename has blocked due to SQ full
system.cpu0.rename.SquashCycles               5632741                       # Number of cycles rename is squashing
system.cpu0.rename.UnblockCycles             15442072                       # Number of cycles rename is unblocking
system.cpu0.rename.UndoneMaps                45290706                       # Number of HB maps that are undone due to squashing
system.cpu0.rename.fp_rename_lookups               40                       # Number of floating rename lookups
system.cpu0.rename.int_rename_lookups      1169014756                       # Number of integer rename lookups
system.cpu0.rename.serializeStallCycles        135294                       # count of cycles rename stalled for serializing inst
system.cpu0.rename.serializingInsts              4626                       # count of serializing insts renamed
system.cpu0.rename.skidInsts                  9889640                       # count of insts added to the skid buffer
system.cpu0.rename.tempSerializingInsts          4616                       # count of temporary serializing insts renamed
system.cpu0.rob.rob_reads                  2474032860                       # The number of ROB reads
system.cpu0.rob.rob_writes                 1909942278                       # The number of ROB writes
system.cpu0.timesIdled                       25475766                       # Number of times that the entire CPU went into an idle state and unscheduled itself
system.cpu0.workload.numSyscalls                 1477                       # Number of system calls
system.cpu1.branchPred.BTBCorrect                   0                       # Number of correct BTB predictions (this stat may not work properly.
system.cpu1.branchPred.BTBHitPct            85.632597                       # BTB Hit Percentage
system.cpu1.branchPred.BTBHits               11305182                       # Number of BTB hits
system.cpu1.branchPred.BTBLookups            13201961                       # Number of BTB lookups
system.cpu1.branchPred.RASInCorrect                 0                       # Number of incorrect RAS predictions.
system.cpu1.branchPred.condIncorrect          3070342                       # Number of conditional branches incorrect
system.cpu1.branchPred.condPredicted         17767227                       # Number of conditional branches predicted
system.cpu1.branchPred.indirectHits            224570                       # Number of indirect target hits.
system.cpu1.branchPred.indirectLookups         320073                       # Number of indirect predictor lookups.
system.cpu1.branchPred.indirectMisses           95503                       # Number of indirect misses.
system.cpu1.branchPred.lookups               20123296                       # Number of BP lookups
system.cpu1.branchPred.usedRAS                      0                       # Number of times the RAS was used to get a target.
system.cpu1.branchPredindirectMispredicted        24126                       # Number of mispredicted indirect branches.
system.cpu1.commit.amos                        819659                       # Number of atomic instructions committed
system.cpu1.commit.branchMispredicts          2184080                       # The number of times a branch was mispredicted
system.cpu1.commit.branches                  10301023                       # Number of branches committed
system.cpu1.commit.bw_lim_events               711787                       # number cycles where commit BW limit reached
system.cpu1.commit.commitNonSpecStalls        2459678                       # The number of times commit has been forced to stall to communicate backwards
system.cpu1.commit.commitSquashedInsts       29551385                       # The number of squashed insts skipped by commit
system.cpu1.commit.committedInsts            41848684                       # Number of instructions committed
system.cpu1.commit.committedOps              42668544                       # Number of ops (including micro ops) committed
system.cpu1.commit.committed_per_cycle::samples    224944050                       # Number of insts commited each cycle
system.cpu1.commit.committed_per_cycle::mean     0.189685                       # Number of insts commited each cycle
system.cpu1.commit.committed_per_cycle::stdev     0.786376                       # Number of insts commited each cycle
system.cpu1.commit.committed_per_cycle::underflows            0      0.00%      0.00% # Number of insts commited each cycle
system.cpu1.commit.committed_per_cycle::0    205169238     91.21%     91.21% # Number of insts commited each cycle
system.cpu1.commit.committed_per_cycle::1      9725861      4.32%     95.53% # Number of insts commited each cycle
system.cpu1.commit.committed_per_cycle::2      4258333      1.89%     97.43% # Number of insts commited each cycle
system.cpu1.commit.committed_per_cycle::3      3141771      1.40%     98.82% # Number of insts commited each cycle
system.cpu1.commit.committed_per_cycle::4      1097429      0.49%     99.31% # Number of insts commited each cycle
system.cpu1.commit.committed_per_cycle::5       197569      0.09%     99.40% # Number of insts commited each cycle
system.cpu1.commit.committed_per_cycle::6       565587      0.25%     99.65% # Number of insts commited each cycle
system.cpu1.commit.committed_per_cycle::7        76475      0.03%     99.68% # Number of insts commited each cycle
system.cpu1.commit.committed_per_cycle::8       711787      0.32%    100.00% # Number of insts commited each cycle
system.cpu1.commit.committed_per_cycle::overflows            0      0.00%    100.00% # Number of insts commited each cycle
system.cpu1.commit.committed_per_cycle::min_value            0                       # Number of insts commited each cycle
system.cpu1.commit.committed_per_cycle::max_value            8                       # Number of insts commited each cycle
system.cpu1.commit.committed_per_cycle::total    224944050                       # Number of insts commited each cycle
system.cpu1.commit.fp_insts                        12                       # Number of committed floating point instructions.
system.cpu1.commit.function_calls              317382                       # Number of function calls committed.
system.cpu1.commit.int_insts                 40182975                       # Number of committed integer instructions.
system.cpu1.commit.loads                     11553033                       # Number of loads committed
system.cpu1.commit.membars                    1639382                       # Number of memory barriers committed
system.cpu1.commit.op_class_0::No_OpClass      1639382      3.84%      3.84% # Class of committed instruction
system.cpu1.commit.op_class_0::IntAlu        24991090     58.57%     62.41% # Class of committed instruction
system.cpu1.commit.op_class_0::IntMult             43      0.00%     62.41% # Class of committed instruction
system.cpu1.commit.op_class_0::IntDiv              86      0.00%     62.41% # Class of committed instruction
system.cpu1.commit.op_class_0::FloatAdd             0      0.00%     62.41% # Class of committed instruction
system.cpu1.commit.op_class_0::FloatCmp             0      0.00%     62.41% # Class of committed instruction
system.cpu1.commit.op_class_0::FloatCvt             0      0.00%     62.41% # Class of committed instruction
system.cpu1.commit.op_class_0::FloatMult            0      0.00%     62.41% # Class of committed instruction
system.cpu1.commit.op_class_0::FloatMultAcc            0      0.00%     62.41% # Class of committed instruction
system.cpu1.commit.op_class_0::FloatDiv             0      0.00%     62.41% # Class of committed instruction
system.cpu1.commit.op_class_0::FloatMisc            0      0.00%     62.41% # Class of committed instruction
system.cpu1.commit.op_class_0::FloatSqrt            0      0.00%     62.41% # Class of committed instruction
system.cpu1.commit.op_class_0::SimdAdd              0      0.00%     62.41% # Class of committed instruction
system.cpu1.commit.op_class_0::SimdAddAcc            0      0.00%     62.41% # Class of committed instruction
system.cpu1.commit.op_class_0::SimdAlu              0      0.00%     62.41% # Class of committed instruction
system.cpu1.commit.op_class_0::SimdCmp              0      0.00%     62.41% # Class of committed instruction
system.cpu1.commit.op_class_0::SimdCvt              0      0.00%     62.41% # Class of committed instruction
system.cpu1.commit.op_class_0::SimdMisc             0      0.00%     62.41% # Class of committed instruction
system.cpu1.commit.op_class_0::SimdMult             0      0.00%     62.41% # Class of committed instruction
system.cpu1.commit.op_class_0::SimdMultAcc            0      0.00%     62.41% # Class of committed instruction
system.cpu1.commit.op_class_0::SimdShift            0      0.00%     62.41% # Class of committed instruction
system.cpu1.commit.op_class_0::SimdShiftAcc            0      0.00%     62.41% # Class of committed instruction
system.cpu1.commit.op_class_0::SimdDiv              0      0.00%     62.41% # Class of committed instruction
system.cpu1.commit.op_class_0::SimdSqrt             0      0.00%     62.41% # Class of committed instruction
system.cpu1.commit.op_class_0::SimdFloatAdd            0      0.00%     62.41% # Class of committed instruction
system.cpu1.commit.op_class_0::SimdFloatAlu            0      0.00%     62.41% # Class of committed instruction
system.cpu1.commit.op_class_0::SimdFloatCmp            0      0.00%     62.41% # Class of committed instruction
system.cpu1.commit.op_class_0::SimdFloatCvt            0      0.00%     62.41% # Class of committed instruction
system.cpu1.commit.op_class_0::SimdFloatDiv            0      0.00%     62.41% # Class of committed instruction
system.cpu1.commit.op_class_0::SimdFloatMisc            0      0.00%     62.41% # Class of committed instruction
system.cpu1.commit.op_class_0::SimdFloatMult            0      0.00%     62.41% # Class of committed instruction
system.cpu1.commit.op_class_0::SimdFloatMultAcc            0      0.00%     62.41% # Class of committed instruction
system.cpu1.commit.op_class_0::SimdFloatSqrt            0      0.00%     62.41% # Class of committed instruction
system.cpu1.commit.op_class_0::SimdReduceAdd            0      0.00%     62.41% # Class of committed instruction
system.cpu1.commit.op_class_0::SimdReduceAlu            0      0.00%     62.41% # Class of committed instruction
system.cpu1.commit.op_class_0::SimdReduceCmp            0      0.00%     62.41% # Class of committed instruction
system.cpu1.commit.op_class_0::SimdFloatReduceAdd            0      0.00%     62.41% # Class of committed instruction
system.cpu1.commit.op_class_0::SimdFloatReduceCmp            0      0.00%     62.41% # Class of committed instruction
system.cpu1.commit.op_class_0::SimdAes              0      0.00%     62.41% # Class of committed instruction
system.cpu1.commit.op_class_0::SimdAesMix            0      0.00%     62.41% # Class of committed instruction
system.cpu1.commit.op_class_0::SimdSha1Hash            0      0.00%     62.41% # Class of committed instruction
system.cpu1.commit.op_class_0::SimdSha1Hash2            0      0.00%     62.41% # Class of committed instruction
system.cpu1.commit.op_class_0::SimdSha256Hash            0      0.00%     62.41% # Class of committed instruction
system.cpu1.commit.op_class_0::SimdSha256Hash2            0      0.00%     62.41% # Class of committed instruction
system.cpu1.commit.op_class_0::SimdShaSigma2            0      0.00%     62.41% # Class of committed instruction
system.cpu1.commit.op_class_0::SimdShaSigma3            0      0.00%     62.41% # Class of committed instruction
system.cpu1.commit.op_class_0::SimdPredAlu            0      0.00%     62.41% # Class of committed instruction
system.cpu1.commit.op_class_0::MemRead       12372692     29.00%     91.41% # Class of committed instruction
system.cpu1.commit.op_class_0::MemWrite       3665239      8.59%    100.00% # Class of committed instruction
system.cpu1.commit.op_class_0::FloatMemRead            0      0.00%    100.00% # Class of committed instruction
system.cpu1.commit.op_class_0::FloatMemWrite           12      0.00%    100.00% # Class of committed instruction
system.cpu1.commit.op_class_0::IprAccess            0      0.00%    100.00% # Class of committed instruction
system.cpu1.commit.op_class_0::InstPrefetch            0      0.00%    100.00% # Class of committed instruction
system.cpu1.commit.op_class_0::total         42668544                       # Class of committed instruction
system.cpu1.commit.refs                      16037943                       # Number of memory references committed
system.cpu1.commit.swp_count                        0                       # Number of s/w prefetches committed
system.cpu1.commit.vec_insts                        0                       # Number of committed Vector instructions.
system.cpu1.committedInsts                   41848684                       # Number of Instructions Simulated
system.cpu1.committedOps                     42668544                       # Number of Ops (including micro ops) Simulated
system.cpu1.cpi                              5.509712                       # CPI: Cycles Per Instruction
system.cpu1.cpi_total                        5.509712                       # CPI: Total CPI of All Threads
system.cpu1.decode.BlockedCycles            168751826                       # Number of cycles decode is blocked
system.cpu1.decode.BranchMispred               890105                       # Number of times decode detected a branch misprediction
system.cpu1.decode.BranchResolved            10234506                       # Number of times decode resolved a branch
system.cpu1.decode.DecodedInsts              81426262                       # Number of instructions handled by decode
system.cpu1.decode.IdleCycles                16757752                       # Number of cycles decode is idle
system.cpu1.decode.RunCycles                 39944570                       # Number of cycles decode is running
system.cpu1.decode.SquashCycles               2185058                       # Number of cycles decode is squashing
system.cpu1.decode.SquashedInsts               938979                       # Number of squashed instructions handled by decode
system.cpu1.decode.UnblockCycles              2334572                       # Number of cycles decode is unblocking
system.cpu1.dtb.accesses                            0                       # DTB accesses
system.cpu1.dtb.hits                                0                       # DTB hits
system.cpu1.dtb.misses                              0                       # DTB misses
system.cpu1.dtb.read_accesses                       0                       # DTB read accesses
system.cpu1.dtb.read_hits                           0                       # DTB read hits
system.cpu1.dtb.read_misses                         0                       # DTB read misses
system.cpu1.dtb.write_accesses                      0                       # DTB write accesses
system.cpu1.dtb.write_hits                          0                       # DTB write hits
system.cpu1.dtb.write_misses                        0                       # DTB write misses
system.cpu1.fetch.Branches                   20123296                       # Number of branches that fetch encountered
system.cpu1.fetch.CacheLines                 13157461                       # Number of cache lines fetched
system.cpu1.fetch.Cycles                    211758854                       # Number of cycles fetch has run and was not squashing or blocked
system.cpu1.fetch.IcacheSquashes               467522                       # Number of outstanding Icache misses that were squashed
system.cpu1.fetch.IcacheWaitRetryStallCycles           16                       # Number of stall cycles due to full MSHR
system.cpu1.fetch.Insts                      91961915                       # Number of instructions fetch has processed
system.cpu1.fetch.MiscStallCycles                   2                       # Number of cycles fetch has spent waiting on interrupts, or bad addresses, or out of MSHRs
system.cpu1.fetch.SquashCycles                6142640                       # Number of cycles fetch has spent squashing
system.cpu1.fetch.branchRate                 0.087275                       # Number of branch fetches per cycle
system.cpu1.fetch.icacheStallCycles          15143586                       # Number of cycles fetch is stalled on an Icache miss
system.cpu1.fetch.predictedBranches          11529752                       # Number of branches that fetch has predicted taken
system.cpu1.fetch.rate                       0.398839                       # Number of inst fetches per cycle
system.cpu1.fetch.rateDist::samples         229973778                       # Number of instructions fetched each cycle (Total)
system.cpu1.fetch.rateDist::mean             0.413054                       # Number of instructions fetched each cycle (Total)
system.cpu1.fetch.rateDist::stdev            0.902530                       # Number of instructions fetched each cycle (Total)
system.cpu1.fetch.rateDist::underflows              0      0.00%      0.00% # Number of instructions fetched each cycle (Total)
system.cpu1.fetch.rateDist::0               173758571     75.56%     75.56% # Number of instructions fetched each cycle (Total)
system.cpu1.fetch.rateDist::1                33220687     14.45%     90.00% # Number of instructions fetched each cycle (Total)
system.cpu1.fetch.rateDist::2                14358231      6.24%     96.24% # Number of instructions fetched each cycle (Total)
system.cpu1.fetch.rateDist::3                 4610515      2.00%     98.25% # Number of instructions fetched each cycle (Total)
system.cpu1.fetch.rateDist::4                 1780731      0.77%     99.02% # Number of instructions fetched each cycle (Total)
system.cpu1.fetch.rateDist::5                 1430405      0.62%     99.65% # Number of instructions fetched each cycle (Total)
system.cpu1.fetch.rateDist::6                  782747      0.34%     99.99% # Number of instructions fetched each cycle (Total)
system.cpu1.fetch.rateDist::7                    3710      0.00%     99.99% # Number of instructions fetched each cycle (Total)
system.cpu1.fetch.rateDist::8                   28181      0.01%    100.00% # Number of instructions fetched each cycle (Total)
system.cpu1.fetch.rateDist::overflows               0      0.00%    100.00% # Number of instructions fetched each cycle (Total)
system.cpu1.fetch.rateDist::min_value               0                       # Number of instructions fetched each cycle (Total)
system.cpu1.fetch.rateDist::max_value               8                       # Number of instructions fetched each cycle (Total)
system.cpu1.fetch.rateDist::total           229973778                       # Number of instructions fetched each cycle (Total)
system.cpu1.fp_regfile_reads                       12                       # number of floating regfile reads
system.cpu1.idleCycles                         600423                       # Total number of cycles that the CPU has spent unscheduled due to idling
system.cpu1.iew.branchMispredicts             2224461                       # Number of branch mispredicts detected at execute
system.cpu1.iew.exec_branches                13353985                       # Number of branches executed
system.cpu1.iew.exec_nop                            0                       # number of nop insts executed
system.cpu1.iew.exec_rate                    0.226263                       # Inst execution rate
system.cpu1.iew.exec_refs                    18115000                       # number of memory reference insts executed
system.cpu1.iew.exec_stores                   5267947                       # Number of stores executed
system.cpu1.iew.exec_swp                            0                       # number of swp insts executed
system.cpu1.iew.iewBlockCycles              153271253                       # Number of cycles IEW is blocking
system.cpu1.iew.iewDispLoadInsts             19822231                       # Number of dispatched load instructions
system.cpu1.iew.iewDispNonSpecInsts           2023840                       # Number of dispatched non-speculative instructions
system.cpu1.iew.iewDispSquashedInsts          1436962                       # Number of squashed instructions skipped by dispatch
system.cpu1.iew.iewDispStoreInsts             8171298                       # Number of dispatched store instructions
system.cpu1.iew.iewDispatchedInsts           72209165                       # Number of instructions dispatched to IQ
system.cpu1.iew.iewExecLoadInsts             12847053                       # Number of load instructions executed
system.cpu1.iew.iewExecSquashedInsts          1763883                       # Number of squashed instructions skipped in execute
system.cpu1.iew.iewExecutedInsts             52170378                       # Number of executed instructions
system.cpu1.iew.iewIQFullEvents                825099                       # Number of times the IQ has become full, causing a stall
system.cpu1.iew.iewIdleCycles                       0                       # Number of cycles IEW is idle
system.cpu1.iew.iewLSQFullEvents               722652                       # Number of times the LSQ has become full, causing a stall
system.cpu1.iew.iewSquashCycles               2185058                       # Number of cycles IEW is squashing
system.cpu1.iew.iewUnblockCycles              2230663                       # Number of cycles IEW is unblocking
system.cpu1.iew.lsq.thread0.blockedLoads            0                       # Number of blocked loads due to partial load-store forwarding
system.cpu1.iew.lsq.thread0.cacheBlocked        27146                       # Number of times an access to memory failed due to the cache being blocked
system.cpu1.iew.lsq.thread0.forwLoads          210178                       # Number of loads that had data forwarded from stores
system.cpu1.iew.lsq.thread0.ignoredResponses        12668                       # Number of memory responses ignored because the instruction is squashed
system.cpu1.iew.lsq.thread0.invAddrLoads            0                       # Number of loads ignored due to an invalid address
system.cpu1.iew.lsq.thread0.invAddrSwpfs            0                       # Number of software prefetches ignored due to an invalid address
system.cpu1.iew.lsq.thread0.memOrderViolation         2015                       # Number of memory ordering violations
system.cpu1.iew.lsq.thread0.rescheduledLoads         2121                       # Number of loads that were rescheduled
system.cpu1.iew.lsq.thread0.squashedLoads      8269198                       # Number of loads squashed
system.cpu1.iew.lsq.thread0.squashedStores      3686388                       # Number of stores squashed
system.cpu1.iew.memOrderViolationEvents          2015                       # Number of memory order violations
system.cpu1.iew.predictedNotTakenIncorrect       628586                       # Number of branches that were predicted not taken incorrectly
system.cpu1.iew.predictedTakenIncorrect       1595875                       # Number of branches that were predicted taken incorrectly
system.cpu1.iew.wb_consumers                 25037482                       # num instructions consuming a value
system.cpu1.iew.wb_count                     51362446                       # cumulative count of insts written-back
system.cpu1.iew.wb_fanout                    0.783840                       # average fanout of values written-back
system.cpu1.iew.wb_producers                 19625370                       # num instructions producing a value
system.cpu1.iew.wb_rate                      0.222759                       # insts written-back per cycle
system.cpu1.iew.wb_sent                      51385948                       # cumulative count of insts sent to commit
system.cpu1.int_regfile_reads                67238297                       # number of integer regfile reads
system.cpu1.int_regfile_writes               32134138                       # number of integer regfile writes
system.cpu1.ipc                              0.181498                       # IPC: Instructions Per Cycle
system.cpu1.ipc_total                        0.181498                       # IPC: Total IPC of All Threads
system.cpu1.iq.FU_type_0::No_OpClass          1639605      3.04%      3.04% # Type of FU issued
system.cpu1.iq.FU_type_0::IntAlu             33674327     62.44%     65.48% # Type of FU issued
system.cpu1.iq.FU_type_0::IntMult                  53      0.00%     65.48% # Type of FU issued
system.cpu1.iq.FU_type_0::IntDiv                   86      0.00%     65.48% # Type of FU issued
system.cpu1.iq.FU_type_0::FloatAdd                  0      0.00%     65.48% # Type of FU issued
system.cpu1.iq.FU_type_0::FloatCmp                  0      0.00%     65.48% # Type of FU issued
system.cpu1.iq.FU_type_0::FloatCvt                  0      0.00%     65.48% # Type of FU issued
system.cpu1.iq.FU_type_0::FloatMult                 0      0.00%     65.48% # Type of FU issued
system.cpu1.iq.FU_type_0::FloatMultAcc              0      0.00%     65.48% # Type of FU issued
system.cpu1.iq.FU_type_0::FloatDiv                  0      0.00%     65.48% # Type of FU issued
system.cpu1.iq.FU_type_0::FloatMisc                 0      0.00%     65.48% # Type of FU issued
system.cpu1.iq.FU_type_0::FloatSqrt                 0      0.00%     65.48% # Type of FU issued
system.cpu1.iq.FU_type_0::SimdAdd                   0      0.00%     65.48% # Type of FU issued
system.cpu1.iq.FU_type_0::SimdAddAcc                0      0.00%     65.48% # Type of FU issued
system.cpu1.iq.FU_type_0::SimdAlu                   0      0.00%     65.48% # Type of FU issued
system.cpu1.iq.FU_type_0::SimdCmp                   0      0.00%     65.48% # Type of FU issued
system.cpu1.iq.FU_type_0::SimdCvt                   0      0.00%     65.48% # Type of FU issued
system.cpu1.iq.FU_type_0::SimdMisc                  0      0.00%     65.48% # Type of FU issued
system.cpu1.iq.FU_type_0::SimdMult                  0      0.00%     65.48% # Type of FU issued
system.cpu1.iq.FU_type_0::SimdMultAcc               0      0.00%     65.48% # Type of FU issued
system.cpu1.iq.FU_type_0::SimdShift                 0      0.00%     65.48% # Type of FU issued
system.cpu1.iq.FU_type_0::SimdShiftAcc              0      0.00%     65.48% # Type of FU issued
system.cpu1.iq.FU_type_0::SimdDiv                   0      0.00%     65.48% # Type of FU issued
system.cpu1.iq.FU_type_0::SimdSqrt                  0      0.00%     65.48% # Type of FU issued
system.cpu1.iq.FU_type_0::SimdFloatAdd              0      0.00%     65.48% # Type of FU issued
system.cpu1.iq.FU_type_0::SimdFloatAlu              0      0.00%     65.48% # Type of FU issued
system.cpu1.iq.FU_type_0::SimdFloatCmp              0      0.00%     65.48% # Type of FU issued
system.cpu1.iq.FU_type_0::SimdFloatCvt              0      0.00%     65.48% # Type of FU issued
system.cpu1.iq.FU_type_0::SimdFloatDiv              0      0.00%     65.48% # Type of FU issued
system.cpu1.iq.FU_type_0::SimdFloatMisc             0      0.00%     65.48% # Type of FU issued
system.cpu1.iq.FU_type_0::SimdFloatMult             0      0.00%     65.48% # Type of FU issued
system.cpu1.iq.FU_type_0::SimdFloatMultAcc            0      0.00%     65.48% # Type of FU issued
system.cpu1.iq.FU_type_0::SimdFloatSqrt             0      0.00%     65.48% # Type of FU issued
system.cpu1.iq.FU_type_0::SimdReduceAdd             0      0.00%     65.48% # Type of FU issued
system.cpu1.iq.FU_type_0::SimdReduceAlu             0      0.00%     65.48% # Type of FU issued
system.cpu1.iq.FU_type_0::SimdReduceCmp             0      0.00%     65.48% # Type of FU issued
system.cpu1.iq.FU_type_0::SimdFloatReduceAdd            0      0.00%     65.48% # Type of FU issued
system.cpu1.iq.FU_type_0::SimdFloatReduceCmp            0      0.00%     65.48% # Type of FU issued
system.cpu1.iq.FU_type_0::SimdAes                   0      0.00%     65.48% # Type of FU issued
system.cpu1.iq.FU_type_0::SimdAesMix                0      0.00%     65.48% # Type of FU issued
system.cpu1.iq.FU_type_0::SimdSha1Hash              0      0.00%     65.48% # Type of FU issued
system.cpu1.iq.FU_type_0::SimdSha1Hash2             0      0.00%     65.48% # Type of FU issued
system.cpu1.iq.FU_type_0::SimdSha256Hash            0      0.00%     65.48% # Type of FU issued
system.cpu1.iq.FU_type_0::SimdSha256Hash2            0      0.00%     65.48% # Type of FU issued
system.cpu1.iq.FU_type_0::SimdShaSigma2             0      0.00%     65.48% # Type of FU issued
system.cpu1.iq.FU_type_0::SimdShaSigma3             0      0.00%     65.48% # Type of FU issued
system.cpu1.iq.FU_type_0::SimdPredAlu               0      0.00%     65.48% # Type of FU issued
system.cpu1.iq.FU_type_0::MemRead            14014438     25.98%     91.46% # Type of FU issued
system.cpu1.iq.FU_type_0::MemWrite            4605740      8.54%    100.00% # Type of FU issued
system.cpu1.iq.FU_type_0::FloatMemRead              0      0.00%    100.00% # Type of FU issued
system.cpu1.iq.FU_type_0::FloatMemWrite            12      0.00%    100.00% # Type of FU issued
system.cpu1.iq.FU_type_0::IprAccess                 0      0.00%    100.00% # Type of FU issued
system.cpu1.iq.FU_type_0::InstPrefetch              0      0.00%    100.00% # Type of FU issued
system.cpu1.iq.FU_type_0::total              53934261                       # Type of FU issued
system.cpu1.iq.fp_alu_accesses                     14                       # Number of floating point alu accesses
system.cpu1.iq.fp_inst_queue_reads                 26                       # Number of floating instruction queue reads
system.cpu1.iq.fp_inst_queue_wakeup_accesses           12                       # Number of floating instruction queue wakeup accesses
system.cpu1.iq.fp_inst_queue_writes                12                       # Number of floating instruction queue writes
system.cpu1.iq.fu_busy_cnt                     882605                       # FU busy when requested
system.cpu1.iq.fu_busy_rate                  0.016364                       # FU busy rate (busy events/executed inst)
system.cpu1.iq.fu_full::No_OpClass                  0      0.00%      0.00% # attempts to use FU when none available
system.cpu1.iq.fu_full::IntAlu                 122801     13.91%     13.91% # attempts to use FU when none available
system.cpu1.iq.fu_full::IntMult                     0      0.00%     13.91% # attempts to use FU when none available
system.cpu1.iq.fu_full::IntDiv                      0      0.00%     13.91% # attempts to use FU when none available
system.cpu1.iq.fu_full::FloatAdd                    0      0.00%     13.91% # attempts to use FU when none available
system.cpu1.iq.fu_full::FloatCmp                    0      0.00%     13.91% # attempts to use FU when none available
system.cpu1.iq.fu_full::FloatCvt                    0      0.00%     13.91% # attempts to use FU when none available
system.cpu1.iq.fu_full::FloatMult                   0      0.00%     13.91% # attempts to use FU when none available
system.cpu1.iq.fu_full::FloatMultAcc                0      0.00%     13.91% # attempts to use FU when none available
system.cpu1.iq.fu_full::FloatDiv                    0      0.00%     13.91% # attempts to use FU when none available
system.cpu1.iq.fu_full::FloatMisc                   0      0.00%     13.91% # attempts to use FU when none available
system.cpu1.iq.fu_full::FloatSqrt                   0      0.00%     13.91% # attempts to use FU when none available
system.cpu1.iq.fu_full::SimdAdd                     0      0.00%     13.91% # attempts to use FU when none available
system.cpu1.iq.fu_full::SimdAddAcc                  0      0.00%     13.91% # attempts to use FU when none available
system.cpu1.iq.fu_full::SimdAlu                     0      0.00%     13.91% # attempts to use FU when none available
system.cpu1.iq.fu_full::SimdCmp                     0      0.00%     13.91% # attempts to use FU when none available
system.cpu1.iq.fu_full::SimdCvt                     0      0.00%     13.91% # attempts to use FU when none available
system.cpu1.iq.fu_full::SimdMisc                    0      0.00%     13.91% # attempts to use FU when none available
system.cpu1.iq.fu_full::SimdMult                    0      0.00%     13.91% # attempts to use FU when none available
system.cpu1.iq.fu_full::SimdMultAcc                 0      0.00%     13.91% # attempts to use FU when none available
system.cpu1.iq.fu_full::SimdShift                   0      0.00%     13.91% # attempts to use FU when none available
system.cpu1.iq.fu_full::SimdShiftAcc                0      0.00%     13.91% # attempts to use FU when none available
system.cpu1.iq.fu_full::SimdDiv                     0      0.00%     13.91% # attempts to use FU when none available
system.cpu1.iq.fu_full::SimdSqrt                    0      0.00%     13.91% # attempts to use FU when none available
system.cpu1.iq.fu_full::SimdFloatAdd                0      0.00%     13.91% # attempts to use FU when none available
system.cpu1.iq.fu_full::SimdFloatAlu                0      0.00%     13.91% # attempts to use FU when none available
system.cpu1.iq.fu_full::SimdFloatCmp                0      0.00%     13.91% # attempts to use FU when none available
system.cpu1.iq.fu_full::SimdFloatCvt                0      0.00%     13.91% # attempts to use FU when none available
system.cpu1.iq.fu_full::SimdFloatDiv                0      0.00%     13.91% # attempts to use FU when none available
system.cpu1.iq.fu_full::SimdFloatMisc               0      0.00%     13.91% # attempts to use FU when none available
system.cpu1.iq.fu_full::SimdFloatMult               0      0.00%     13.91% # attempts to use FU when none available
system.cpu1.iq.fu_full::SimdFloatMultAcc            0      0.00%     13.91% # attempts to use FU when none available
system.cpu1.iq.fu_full::SimdFloatSqrt               0      0.00%     13.91% # attempts to use FU when none available
system.cpu1.iq.fu_full::SimdReduceAdd               0      0.00%     13.91% # attempts to use FU when none available
system.cpu1.iq.fu_full::SimdReduceAlu               0      0.00%     13.91% # attempts to use FU when none available
system.cpu1.iq.fu_full::SimdReduceCmp               0      0.00%     13.91% # attempts to use FU when none available
system.cpu1.iq.fu_full::SimdFloatReduceAdd            0      0.00%     13.91% # attempts to use FU when none available
system.cpu1.iq.fu_full::SimdFloatReduceCmp            0      0.00%     13.91% # attempts to use FU when none available
system.cpu1.iq.fu_full::SimdAes                     0      0.00%     13.91% # attempts to use FU when none available
system.cpu1.iq.fu_full::SimdAesMix                  0      0.00%     13.91% # attempts to use FU when none available
system.cpu1.iq.fu_full::SimdSha1Hash                0      0.00%     13.91% # attempts to use FU when none available
system.cpu1.iq.fu_full::SimdSha1Hash2               0      0.00%     13.91% # attempts to use FU when none available
system.cpu1.iq.fu_full::SimdSha256Hash              0      0.00%     13.91% # attempts to use FU when none available
system.cpu1.iq.fu_full::SimdSha256Hash2             0      0.00%     13.91% # attempts to use FU when none available
system.cpu1.iq.fu_full::SimdShaSigma2               0      0.00%     13.91% # attempts to use FU when none available
system.cpu1.iq.fu_full::SimdShaSigma3               0      0.00%     13.91% # attempts to use FU when none available
system.cpu1.iq.fu_full::SimdPredAlu                 0      0.00%     13.91% # attempts to use FU when none available
system.cpu1.iq.fu_full::MemRead                677410     76.75%     90.66% # attempts to use FU when none available
system.cpu1.iq.fu_full::MemWrite                82392      9.34%    100.00% # attempts to use FU when none available
[...]
system.cpu1.dcache.WriteReq_mshr_miss_rate::.cpu1.data     0.033404                       # mshr miss rate for WriteReq accesses
system.cpu1.dcache.WriteReq_mshr_miss_rate::total     0.033404                       # mshr miss rate for WriteReq accesses
system.cpu1.dcache.WriteReq_avg_mshr_miss_latency::.cpu1.data 83176.319180                       # average WriteReq mshr miss latency
system.cpu1.dcache.WriteReq_avg_mshr_miss_latency::total 83176.319180                       # average WriteReq mshr miss latency
system.cpu1.dcache.LoadLockedReq_hits::.cpu1.data          943                       # number of LoadLockedReq hits
system.cpu1.dcache.LoadLockedReq_hits::total          943                       # number of LoadLockedReq hits
system.cpu1.dcache.LoadLockedReq_misses::.cpu1.data          375                       # number of LoadLockedReq misses
system.cpu1.dcache.LoadLockedReq_misses::total          375                       # number of LoadLockedReq misses
system.cpu1.dcache.LoadLockedReq_miss_latency::.cpu1.data     10986000                       # number of LoadLockedReq miss cycles
system.cpu1.dcache.LoadLockedReq_miss_latency::total     10986000                       # number of LoadLockedReq miss cycles
system.cpu1.dcache.LoadLockedReq_accesses::.cpu1.data         1318                       # number of LoadLockedReq accesses(hits+misses)
system.cpu1.dcache.LoadLockedReq_accesses::total         1318                       # number of LoadLockedReq accesses(hits+misses)
system.cpu1.dcache.LoadLockedReq_miss_rate::.cpu1.data     0.284522                       # miss rate for LoadLockedReq accesses
system.cpu1.dcache.LoadLockedReq_miss_rate::total     0.284522                       # miss rate for LoadLockedReq accesses
system.cpu1.dcache.LoadLockedReq_avg_miss_latency::.cpu1.data        29296                       # average LoadLockedReq miss latency
system.cpu1.dcache.LoadLockedReq_avg_miss_latency::total        29296                       # average LoadLockedReq miss latency
system.cpu1.dcache.LoadLockedReq_mshr_hits::.cpu1.data          176                       # number of LoadLockedReq MSHR hits
system.cpu1.dcache.LoadLockedReq_mshr_hits::total          176                       # number of LoadLockedReq MSHR hits
system.cpu1.dcache.LoadLockedReq_mshr_misses::.cpu1.data          199                       # number of LoadLockedReq MSHR misses
system.cpu1.dcache.LoadLockedReq_mshr_misses::total          199                       # number of LoadLockedReq MSHR misses
system.cpu1.dcache.LoadLockedReq_mshr_miss_latency::.cpu1.data      1361000                       # number of LoadLockedReq MSHR miss cycles
system.cpu1.dcache.LoadLockedReq_mshr_miss_latency::total      1361000                       # number of LoadLockedReq MSHR miss cycles
system.cpu1.dcache.LoadLockedReq_mshr_miss_rate::.cpu1.data     0.150986                       # mshr miss rate for LoadLockedReq accesses
system.cpu1.dcache.LoadLockedReq_mshr_miss_rate::total     0.150986                       # mshr miss rate for LoadLockedReq accesses
system.cpu1.dcache.LoadLockedReq_avg_mshr_miss_latency::.cpu1.data  6839.195980                       # average LoadLockedReq mshr miss latency
system.cpu1.dcache.LoadLockedReq_avg_mshr_miss_latency::total  6839.195980                       # average LoadLockedReq mshr miss latency
system.cpu1.dcache.StoreCondReq_hits::.cpu1.data          515                       # number of StoreCondReq hits
system.cpu1.dcache.StoreCondReq_hits::total          515                       # number of StoreCondReq hits
system.cpu1.dcache.StoreCondReq_misses::.cpu1.data          449                       # number of StoreCondReq misses
system.cpu1.dcache.StoreCondReq_misses::total          449                       # number of StoreCondReq misses
system.cpu1.dcache.StoreCondReq_miss_latency::.cpu1.data      2536500                       # number of StoreCondReq miss cycles
system.cpu1.dcache.StoreCondReq_miss_latency::total      2536500                       # number of StoreCondReq miss cycles
system.cpu1.dcache.StoreCondReq_accesses::.cpu1.data          964                       # number of StoreCondReq accesses(hits+misses)
system.cpu1.dcache.StoreCondReq_accesses::total          964                       # number of StoreCondReq accesses(hits+misses)
system.cpu1.dcache.StoreCondReq_miss_rate::.cpu1.data     0.465768                       # miss rate for StoreCondReq accesses
system.cpu1.dcache.StoreCondReq_miss_rate::total     0.465768                       # miss rate for StoreCondReq accesses
system.cpu1.dcache.StoreCondReq_avg_miss_latency::.cpu1.data  5649.220490                       # average StoreCondReq miss latency
system.cpu1.dcache.StoreCondReq_avg_miss_latency::total  5649.220490                       # average StoreCondReq miss latency
system.cpu1.dcache.StoreCondReq_mshr_misses::.cpu1.data          443                       # number of StoreCondReq MSHR misses
system.cpu1.dcache.StoreCondReq_mshr_misses::total          443                       # number of StoreCondReq MSHR misses
system.cpu1.dcache.StoreCondReq_mshr_miss_latency::.cpu1.data      2161500                       # number of StoreCondReq MSHR miss cycles
system.cpu1.dcache.StoreCondReq_mshr_miss_latency::total      2161500                       # number of StoreCondReq MSHR miss cycles
system.cpu1.dcache.StoreCondReq_mshr_miss_rate::.cpu1.data     0.459544                       # mshr miss rate for StoreCondReq accesses
system.cpu1.dcache.StoreCondReq_mshr_miss_rate::total     0.459544                       # mshr miss rate for StoreCondReq accesses
system.cpu1.dcache.StoreCondReq_avg_mshr_miss_latency::.cpu1.data  4879.232506                       # average StoreCondReq mshr miss latency
system.cpu1.dcache.StoreCondReq_avg_mshr_miss_latency::total  4879.232506                       # average StoreCondReq mshr miss latency
system.cpu1.dcache.StoreCondFailReq_miss_latency::.cpu1.data      1115500                       # number of StoreCondFailReq miss cycles
system.cpu1.dcache.StoreCondFailReq_miss_latency::total      1115500                       # number of StoreCondFailReq miss cycles
system.cpu1.dcache.StoreCondFailReq_avg_miss_latency::.cpu1.data          inf                       # average StoreCondFailReq miss latency
system.cpu1.dcache.StoreCondFailReq_avg_miss_latency::total          inf                       # average StoreCondFailReq miss latency
system.cpu1.dcache.StoreCondFailReq_mshr_miss_latency::.cpu1.data      1047500                       # number of StoreCondFailReq MSHR miss cycles
system.cpu1.dcache.StoreCondFailReq_mshr_miss_latency::total      1047500                       # number of StoreCondFailReq MSHR miss cycles
system.cpu1.dcache.StoreCondFailReq_avg_mshr_miss_latency::.cpu1.data          inf                       # average StoreCondFailReq mshr miss latency
system.cpu1.dcache.StoreCondFailReq_avg_mshr_miss_latency::total          inf                       # average StoreCondFailReq mshr miss latency
system.cpu1.dcache.SwapReq_hits::.cpu1.data          237                       # number of SwapReq hits
system.cpu1.dcache.SwapReq_hits::total            237                       # number of SwapReq hits
system.cpu1.dcache.SwapReq_misses::.cpu1.data          627                       # number of SwapReq misses
system.cpu1.dcache.SwapReq_misses::total          627                       # number of SwapReq misses
system.cpu1.dcache.SwapReq_miss_latency::.cpu1.data      2847500                       # number of SwapReq miss cycles
system.cpu1.dcache.SwapReq_miss_latency::total      2847500                       # number of SwapReq miss cycles
system.cpu1.dcache.SwapReq_accesses::.cpu1.data          864                       # number of SwapReq accesses(hits+misses)
system.cpu1.dcache.SwapReq_accesses::total          864                       # number of SwapReq accesses(hits+misses)
system.cpu1.dcache.SwapReq_miss_rate::.cpu1.data     0.725694                       # miss rate for SwapReq accesses
system.cpu1.dcache.SwapReq_miss_rate::total     0.725694                       # miss rate for SwapReq accesses
system.cpu1.dcache.SwapReq_avg_miss_latency::.cpu1.data  4541.467305                       # average SwapReq miss latency
system.cpu1.dcache.SwapReq_avg_miss_latency::total  4541.467305                       # average SwapReq miss latency
system.cpu1.dcache.SwapReq_mshr_misses::.cpu1.data          627                       # number of SwapReq MSHR misses
system.cpu1.dcache.SwapReq_mshr_misses::total          627                       # number of SwapReq MSHR misses
system.cpu1.dcache.SwapReq_mshr_miss_latency::.cpu1.data      2220500                       # number of SwapReq MSHR miss cycles
system.cpu1.dcache.SwapReq_mshr_miss_latency::total      2220500                       # number of SwapReq MSHR miss cycles
system.cpu1.dcache.SwapReq_mshr_miss_rate::.cpu1.data     0.725694                       # mshr miss rate for SwapReq accesses
system.cpu1.dcache.SwapReq_mshr_miss_rate::total     0.725694                       # mshr miss rate for SwapReq accesses
system.cpu1.dcache.SwapReq_avg_mshr_miss_latency::.cpu1.data  3541.467305                       # average SwapReq mshr miss latency
system.cpu1.dcache.SwapReq_avg_mshr_miss_latency::total  3541.467305                       # average SwapReq mshr miss latency
system.cpu1.dcache.tags.pwrStateResidencyTicks::UNDEFINED 584224989000                       # Cumulative time (in ticks) in various power states
system.cpu1.dcache.tags.tagsinuse           31.951527                       # Cycle average of tags in use
system.cpu1.dcache.tags.total_refs           53167621                       # Total number of references to valid blocks.
system.cpu1.dcache.tags.sampled_refs         14403604                       # Sample count of references to valid blocks.
system.cpu1.dcache.tags.avg_refs             3.691272                       # Average number of references to valid blocks.
system.cpu1.dcache.tags.warmup_cycle                0                       # Cycle when the warmup percentage was hit.
system.cpu1.dcache.tags.occ_blocks::.cpu1.data    31.951527                       # Average occupied blocks per requestor
system.cpu1.dcache.tags.occ_percent::.cpu1.data     0.998485                       # Average percentage of cache occupancy
system.cpu1.dcache.tags.occ_percent::total     0.998485                       # Average percentage of cache occupancy
system.cpu1.dcache.tags.occ_task_id_blocks::1024           29                       # Occupied blocks per task id
system.cpu1.dcache.tags.age_task_id_blocks_1024::1           29                       # Occupied blocks per task id
system.cpu1.dcache.tags.occ_task_id_percent::1024     0.906250                       # Percentage of cache occupancy per task id
system.cpu1.dcache.tags.tag_accesses        133367602                       # Number of tag accesses
system.cpu1.dcache.tags.data_accesses       133367602                       # Number of data accesses
system.cpu_clk_domain.clock                       500                       # Clock period in ticks
system.tol2bus.pwrStateResidencyTicks::UNDEFINED 584224989000                       # Cumulative time (in ticks) in various power states
system.tol2bus.trans_dist::ReadResp          48655747                       # Transaction distribution
system.tol2bus.trans_dist::ReadRespWithInvalidate            1                       # Transaction distribution
system.tol2bus.trans_dist::WritebackDirty      1713597                       # Transaction distribution
system.tol2bus.trans_dist::WritebackClean     47776614                       # Transaction distribution
system.tol2bus.trans_dist::CleanEvict       105206528                       # Transaction distribution
system.tol2bus.trans_dist::HardPFReq         36948393                       # Transaction distribution
system.tol2bus.trans_dist::HardPFResp               4                       # Transaction distribution
system.tol2bus.trans_dist::UpgradeReq           26789                       # Transaction distribution
system.tol2bus.trans_dist::SCUpgradeReq          1790                       # Transaction distribution
system.tol2bus.trans_dist::UpgradeResp          28579                       # Transaction distribution
system.tol2bus.trans_dist::SCUpgradeFailReq          182                       # Transaction distribution
system.tol2bus.trans_dist::UpgradeFailResp          182                       # Transaction distribution
system.tol2bus.trans_dist::ReadExReq            65728                       # Transaction distribution
system.tol2bus.trans_dist::ReadExResp           65728                       # Transaction distribution
system.tol2bus.trans_dist::ReadCleanReq         30823                       # Transaction distribution
system.tol2bus.trans_dist::ReadSharedReq     48624926                       # Transaction distribution
system.tol2bus.pkt_count_system.cpu0.icache.mem_side::system.l2.cpu_side        54919                       # Packet count per connected master and slave (bytes)
system.tol2bus.pkt_count_system.cpu0.dcache.mem_side::system.l2.cpu_side     59864891                       # Packet count per connected master and slave (bytes)
system.tol2bus.pkt_count_system.cpu1.icache.mem_side::system.l2.cpu_side        13092                       # Packet count per connected master and slave (bytes)
system.tol2bus.pkt_count_system.cpu1.dcache.mem_side::system.l2.cpu_side     43203964                       # Packet count per connected master and slave (bytes)
system.tol2bus.pkt_count_system.cpu2.icache.mem_side::system.l2.cpu_side        12237                       # Packet count per connected master and slave (bytes)
system.tol2bus.pkt_count_system.cpu2.dcache.mem_side::system.l2.cpu_side     27666204                       # Packet count per connected master and slave (bytes)
system.tol2bus.pkt_count_system.cpu3.icache.mem_side::system.l2.cpu_side        12219                       # Packet count per connected master and slave (bytes)
system.tol2bus.pkt_count_system.cpu3.dcache.mem_side::system.l2.cpu_side     15319517                       # Packet count per connected master and slave (bytes)
system.tol2bus.pkt_count::total             146147043                       # Packet count per connected master and slave (bytes)
system.tol2bus.pkt_size_system.cpu0.icache.mem_side::system.l2.cpu_side      2343168                       # Cumulative packet size per connected master and slave (bytes)
system.tol2bus.pkt_size_system.cpu0.dcache.mem_side::system.l2.cpu_side   2553242432                       # Cumulative packet size per connected master and slave (bytes)
system.tol2bus.pkt_size_system.cpu1.icache.mem_side::system.l2.cpu_side       558592                       # Cumulative packet size per connected master and slave (bytes)
system.tol2bus.pkt_size_system.cpu1.dcache.mem_side::system.l2.cpu_side   1842466816                       # Cumulative packet size per connected master and slave (bytes)
system.tol2bus.pkt_size_system.cpu2.icache.mem_side::system.l2.cpu_side       522112                       # Cumulative packet size per connected master and slave (bytes)
system.tol2bus.pkt_size_system.cpu2.dcache.mem_side::system.l2.cpu_side   1179546880                       # Cumulative packet size per connected master and slave (bytes)
system.tol2bus.pkt_size_system.cpu3.icache.mem_side::system.l2.cpu_side       521344                       # Cumulative packet size per connected master and slave (bytes)
system.tol2bus.pkt_size_system.cpu3.dcache.mem_side::system.l2.cpu_side    652856192                       # Cumulative packet size per connected master and slave (bytes)
system.tol2bus.pkt_size::total             6232057536                       # Cumulative packet size per connected master and slave (bytes)
system.tol2bus.snoops                       142998572                       # Total snoops (count)
system.tol2bus.snoopTraffic                  53502592                       # Total snoop traffic (bytes)
system.tol2bus.snoop_fanout::samples        192600668                       # Request fanout histogram
system.tol2bus.snoop_fanout::mean            0.255918                       # Request fanout histogram
system.tol2bus.snoop_fanout::stdev           0.489852                       # Request fanout histogram
system.tol2bus.snoop_fanout::underflows             0      0.00%      0.00% # Request fanout histogram
system.tol2bus.snoop_fanout::0              147087405     76.37%     76.37% # Request fanout histogram
system.tol2bus.snoop_fanout::1               42590770     22.11%     98.48% # Request fanout histogram
system.tol2bus.snoop_fanout::2                2207084      1.15%     99.63% # Request fanout histogram
system.tol2bus.snoop_fanout::3                 576634      0.30%     99.93% # Request fanout histogram
system.tol2bus.snoop_fanout::4                 138712      0.07%    100.00% # Request fanout histogram
system.tol2bus.snoop_fanout::5                     63      0.00%    100.00% # Request fanout histogram
system.tol2bus.snoop_fanout::6                      0      0.00%    100.00% # Request fanout histogram
system.tol2bus.snoop_fanout::7                      0      0.00%    100.00% # Request fanout histogram
system.tol2bus.snoop_fanout::8                      0      0.00%    100.00% # Request fanout histogram
system.tol2bus.snoop_fanout::overflows              0      0.00%    100.00% # Request fanout histogram
system.tol2bus.snoop_fanout::min_value              0                       # Request fanout histogram
system.tol2bus.snoop_fanout::max_value              5                       # Request fanout histogram
system.tol2bus.snoop_fanout::total          192600668                       # Request fanout histogram
system.tol2bus.reqLayer0.occupancy        99740665715                       # Layer occupancy (ticks)
system.tol2bus.reqLayer0.utilization             17.1                       # Layer utilization (%)
system.tol2bus.respLayer5.occupancy       13875847129                       # Layer occupancy (ticks)
system.tol2bus.respLayer5.utilization             2.4                       # Layer utilization (%)
system.tol2bus.respLayer4.occupancy           6410809                       # Layer occupancy (ticks)
system.tol2bus.respLayer4.utilization             0.0                       # Layer utilization (%)
system.tol2bus.respLayer7.occupancy        7687652453                       # Layer occupancy (ticks)
system.tol2bus.respLayer7.utilization             1.3                       # Layer utilization (%)
system.tol2bus.respLayer6.occupancy           6283069                       # Layer occupancy (ticks)
system.tol2bus.respLayer6.utilization             0.0                       # Layer utilization (%)
system.tol2bus.respLayer1.occupancy       29975858751                       # Layer occupancy (ticks)
system.tol2bus.respLayer1.utilization             5.1                       # Layer utilization (%)
system.tol2bus.respLayer0.occupancy          27497910                       # Layer occupancy (ticks)
system.tol2bus.respLayer0.utilization             0.0                       # Layer utilization (%)
system.tol2bus.respLayer3.occupancy       21652126460                       # Layer occupancy (ticks)
system.tol2bus.respLayer3.utilization             3.7                       # Layer utilization (%)
system.tol2bus.respLayer2.occupancy           6835783                       # Layer occupancy (ticks)
system.tol2bus.respLayer2.utilization             0.0                       # Layer utilization (%)
system.tol2bus.snoopLayer0.occupancy             6002                       # Layer occupancy (ticks)
system.tol2bus.snoopLayer0.utilization            0.0                       # Layer utilization (%)

---------- End Simulation Statistics   ----------
