
---------- Begin Simulation Statistics ----------
final_tick                                36110920000                       # Number of ticks from beginning of simulation (restored from checkpoints and never reset)
host_inst_rate                                 114750                       # Simulator instruction rate (inst/s)
host_mem_usage                                 739072                       # Number of bytes of host memory used
host_op_rate                                   115226                       # Simulator op (including micro ops) rate (op/s)
host_seconds                                   551.70                       # Real time elapsed on the host
host_tick_rate                               65454420                       # Simulator tick rate (ticks/s)
sim_freq                                 1000000000000                       # Frequency of simulated ticks
sim_insts                                    63306940                       # Number of instructions simulated
sim_ops                                      63569898                       # Number of ops (including micro ops) simulated
sim_seconds                                  0.036111                       # Number of seconds simulated
sim_ticks                                 36110920000                       # Number of ticks simulated
system.cpu0.branchPred.BTBCorrect                   0                       # Number of correct BTB predictions (this stat may not work properly.
system.cpu0.branchPred.BTBHitPct            84.348394                       # BTB Hit Percentage
system.cpu0.branchPred.BTBHits               10623089                       # Number of BTB hits
system.cpu0.branchPred.BTBLookups            12594299                       # Number of BTB lookups
system.cpu0.branchPred.RASInCorrect                 0                       # Number of incorrect RAS predictions.
system.cpu0.branchPred.condIncorrect          2805786                       # Number of conditional branches incorrect
system.cpu0.branchPred.condPredicted         11768923                       # Number of conditional branches predicted
system.cpu0.branchPred.indirectHits            896121                       # Number of indirect target hits.
system.cpu0.branchPred.indirectLookups         901846                       # Number of indirect predictor lookups.
system.cpu0.branchPred.indirectMisses            5725                       # Number of indirect misses.
system.cpu0.branchPred.lookups               14636249                       # Number of BP lookups
system.cpu0.branchPred.usedRAS                      0                       # Number of times the RAS was used to get a target.
system.cpu0.branchPredindirectMispredicted         3836                       # Number of mispredicted indirect branches.
system.cpu0.commit.amos                         65819                       # Number of atomic instructions committed
system.cpu0.commit.branchMispredicts          1505309                       # The number of times a branch was mispredicted
system.cpu0.commit.branches                   8106356                       # Number of branches committed
system.cpu0.commit.bw_lim_events               297863                       # number cycles where commit BW limit reached
system.cpu0.commit.commitNonSpecStalls         197973                       # The number of times commit has been forced to stall to communicate backwards
system.cpu0.commit.commitSquashedInsts       16882912                       # The number of squashed insts skipped by commit
system.cpu0.commit.committedInsts            52852151                       # Number of instructions committed
system.cpu0.commit.committedOps              52917958                       # Number of ops (including micro ops) committed
system.cpu0.commit.committed_per_cycle::samples     68253615                       # Number of insts commited each cycle
system.cpu0.commit.committed_per_cycle::mean     0.775314                       # Number of insts commited each cycle
system.cpu0.commit.committed_per_cycle::stdev     1.161461                       # Number of insts commited each cycle
system.cpu0.commit.committed_per_cycle::underflows            0      0.00%      0.00% # Number of insts commited each cycle
system.cpu0.commit.committed_per_cycle::0     38410710     56.28%     56.28% # Number of insts commited each cycle
system.cpu0.commit.committed_per_cycle::1     15731529     23.05%     79.33% # Number of insts commited each cycle
system.cpu0.commit.committed_per_cycle::2      8853047     12.97%     92.30% # Number of insts commited each cycle
system.cpu0.commit.committed_per_cycle::3      3699522      5.42%     97.72% # Number of insts commited each cycle
system.cpu0.commit.committed_per_cycle::4       615875      0.90%     98.62% # Number of insts commited each cycle
system.cpu0.commit.committed_per_cycle::5       439070      0.64%     99.26% # Number of insts commited each cycle
system.cpu0.commit.committed_per_cycle::6       101978      0.15%     99.41% # Number of insts commited each cycle
system.cpu0.commit.committed_per_cycle::7       104021      0.15%     99.56% # Number of insts commited each cycle
system.cpu0.commit.committed_per_cycle::8       297863      0.44%    100.00% # Number of insts commited each cycle
system.cpu0.commit.committed_per_cycle::overflows            0      0.00%    100.00% # Number of insts commited each cycle
system.cpu0.commit.committed_per_cycle::min_value            0                       # Number of insts commited each cycle
system.cpu0.commit.committed_per_cycle::max_value            8                       # Number of insts commited each cycle
system.cpu0.commit.committed_per_cycle::total     68253615                       # Number of insts commited each cycle
system.cpu0.commit.fp_insts                   5636177                       # Number of committed floating point instructions.
system.cpu0.commit.function_calls             1603963                       # Number of function calls committed.
system.cpu0.commit.int_insts                 50305472                       # Number of committed integer instructions.
system.cpu0.commit.loads                      5138456                       # Number of loads committed
system.cpu0.commit.membars                     131674                       # Number of memory barriers committed
system.cpu0.commit.op_class_0::No_OpClass       131683      0.25%      0.25% # Class of committed instruction
system.cpu0.commit.op_class_0::IntAlu        39929593     75.46%     75.70% # Class of committed instruction
system.cpu0.commit.op_class_0::IntMult           6136      0.01%     75.72% # Class of committed instruction
system.cpu0.commit.op_class_0::IntDiv            8240      0.02%     75.73% # Class of committed instruction
system.cpu0.commit.op_class_0::FloatAdd       1572864      2.97%     78.70% # Class of committed instruction
system.cpu0.commit.op_class_0::FloatCmp       2359302      4.46%     83.16% # Class of committed instruction
system.cpu0.commit.op_class_0::FloatCvt        851984      1.61%     84.77% # Class of committed instruction
system.cpu0.commit.op_class_0::FloatMult       786432      1.49%     86.26% # Class of committed instruction
system.cpu0.commit.op_class_0::FloatMultAcc            0      0.00%     86.26% # Class of committed instruction
system.cpu0.commit.op_class_0::FloatDiv             2      0.00%     86.26% # Class of committed instruction
system.cpu0.commit.op_class_0::FloatMisc            6      0.00%     86.26% # Class of committed instruction
system.cpu0.commit.op_class_0::FloatSqrt            0      0.00%     86.26% # Class of committed instruction
system.cpu0.commit.op_class_0::SimdAdd              0      0.00%     86.26% # Class of committed instruction
system.cpu0.commit.op_class_0::SimdAddAcc            0      0.00%     86.26% # Class of committed instruction
system.cpu0.commit.op_class_0::SimdAlu              0      0.00%     86.26% # Class of committed instruction
system.cpu0.commit.op_class_0::SimdCmp              0      0.00%     86.26% # Class of committed instruction
system.cpu0.commit.op_class_0::SimdCvt              0      0.00%     86.26% # Class of committed instruction
system.cpu0.commit.op_class_0::SimdMisc             0      0.00%     86.26% # Class of committed instruction
system.cpu0.commit.op_class_0::SimdMult             0      0.00%     86.26% # Class of committed instruction
system.cpu0.commit.op_class_0::SimdMultAcc            0      0.00%     86.26% # Class of committed instruction
system.cpu0.commit.op_class_0::SimdShift            0      0.00%     86.26% # Class of committed instruction
system.cpu0.commit.op_class_0::SimdShiftAcc            0      0.00%     86.26% # Class of committed instruction
system.cpu0.commit.op_class_0::SimdDiv              0      0.00%     86.26% # Class of committed instruction
system.cpu0.commit.op_class_0::SimdSqrt             0      0.00%     86.26% # Class of committed instruction
system.cpu0.commit.op_class_0::SimdFloatAdd            0      0.00%     86.26% # Class of committed instruction
system.cpu0.commit.op_class_0::SimdFloatAlu            0      0.00%     86.26% # Class of committed instruction
system.cpu0.commit.op_class_0::SimdFloatCmp            0      0.00%     86.26% # Class of committed instruction
system.cpu0.commit.op_class_0::SimdFloatCvt            0      0.00%     86.26% # Class of committed instruction
system.cpu0.commit.op_class_0::SimdFloatDiv            0      0.00%     86.26% # Class of committed instruction
system.cpu0.commit.op_class_0::SimdFloatMisc            0      0.00%     86.26% # Class of committed instruction
system.cpu0.commit.op_class_0::SimdFloatMult            0      0.00%     86.26% # Class of committed instruction
system.cpu0.commit.op_class_0::SimdFloatMultAcc            0      0.00%     86.26% # Class of committed instruction
system.cpu0.commit.op_class_0::SimdFloatSqrt            0      0.00%     86.26% # Class of committed instruction
system.cpu0.commit.op_class_0::SimdReduceAdd            0      0.00%     86.26% # Class of committed instruction
system.cpu0.commit.op_class_0::SimdReduceAlu            0      0.00%     86.26% # Class of committed instruction
system.cpu0.commit.op_class_0::SimdReduceCmp            0      0.00%     86.26% # Class of committed instruction
system.cpu0.commit.op_class_0::SimdFloatReduceAdd            0      0.00%     86.26% # Class of committed instruction
system.cpu0.commit.op_class_0::SimdFloatReduceCmp            0      0.00%     86.26% # Class of committed instruction
system.cpu0.commit.op_class_0::SimdAes              0      0.00%     86.26% # Class of committed instruction
system.cpu0.commit.op_class_0::SimdAesMix            0      0.00%     86.26% # Class of committed instruction
system.cpu0.commit.op_class_0::SimdSha1Hash            0      0.00%     86.26% # Class of committed instruction
system.cpu0.commit.op_class_0::SimdSha1Hash2            0      0.00%     86.26% # Class of committed instruction
system.cpu0.commit.op_class_0::SimdSha256Hash            0      0.00%     86.26% # Class of committed instruction
system.cpu0.commit.op_class_0::SimdSha256Hash2            0      0.00%     86.26% # Class of committed instruction
system.cpu0.commit.op_class_0::SimdShaSigma2            0      0.00%     86.26% # Class of committed instruction
system.cpu0.commit.op_class_0::SimdShaSigma3            0      0.00%     86.26% # Class of committed instruction
system.cpu0.commit.op_class_0::SimdPredAlu            0      0.00%     86.26% # Class of committed instruction
system.cpu0.commit.op_class_0::MemRead        5138717      9.71%     95.97% # Class of committed instruction
system.cpu0.commit.op_class_0::MemWrite       2067412      3.91%     99.88% # Class of committed instruction
system.cpu0.commit.op_class_0::FloatMemRead        65558      0.12%    100.00% # Class of committed instruction
system.cpu0.commit.op_class_0::FloatMemWrite           29      0.00%    100.00% # Class of committed instruction
system.cpu0.commit.op_class_0::IprAccess            0      0.00%    100.00% # Class of committed instruction
system.cpu0.commit.op_class_0::InstPrefetch            0      0.00%    100.00% # Class of committed instruction
system.cpu0.commit.op_class_0::total         52917958                       # Class of committed instruction
system.cpu0.commit.refs                       7271716                       # Number of memory references committed
system.cpu0.commit.swp_count                        0                       # Number of s/w prefetches committed
system.cpu0.commit.vec_insts                        0                       # Number of committed Vector instructions.
system.cpu0.committedInsts                   52852151                       # Number of Instructions Simulated
system.cpu0.committedOps                     52917958                       # Number of Ops (including micro ops) Simulated
system.cpu0.cpi                              1.347061                       # CPI: Cycles Per Instruction
system.cpu0.cpi_total                        1.347061                       # CPI: Total CPI of All Threads
system.cpu0.decode.BlockedCycles             10068812                       # Number of cycles decode is blocked
system.cpu0.decode.BranchMispred              1300743                       # Number of times decode detected a branch misprediction
system.cpu0.decode.BranchResolved             9503991                       # Number of times decode resolved a branch
system.cpu0.decode.DecodedInsts              75809169                       # Number of instructions handled by decode
system.cpu0.decode.IdleCycles                15161983                       # Number of cycles decode is idle
system.cpu0.decode.RunCycles                 43368294                       # Number of cycles decode is running
system.cpu0.decode.SquashCycles               1505598                       # Number of cycles decode is squashing
system.cpu0.decode.SquashedInsts              2509418                       # Number of squashed instructions handled by decode
system.cpu0.decode.UnblockCycles               762826                       # Number of cycles decode is unblocking
system.cpu0.dtb.accesses                            0                       # DTB accesses
system.cpu0.dtb.hits                                0                       # DTB hits
system.cpu0.dtb.misses                              0                       # DTB misses
system.cpu0.dtb.read_accesses                       0                       # DTB read accesses
system.cpu0.dtb.read_hits                           0                       # DTB read hits
system.cpu0.dtb.read_misses                         0                       # DTB read misses
system.cpu0.dtb.write_accesses                      0                       # DTB write accesses
system.cpu0.dtb.write_hits                          0                       # DTB write hits
system.cpu0.dtb.write_misses                        0                       # DTB write misses
system.cpu0.fetch.Branches                   14636249                       # Number of branches that fetch encountered
system.cpu0.fetch.CacheLines                 10527495                       # Number of cache lines fetched
system.cpu0.fetch.Cycles                     55616512                       # Number of cycles fetch has run and was not squashing or blocked
system.cpu0.fetch.IcacheSquashes               101878                       # Number of outstanding Icache misses that were squashed
system.cpu0.fetch.IcacheWaitRetryStallCycles           72                       # Number of stall cycles due to full MSHR
system.cpu0.fetch.Insts                      84693926                       # Number of instructions fetch has processed
system.cpu0.fetch.MiscStallCycles                 102                       # Number of cycles fetch has spent waiting on interrupts, or bad addresses, or out of MSHRs
system.cpu0.fetch.PendingTrapStallCycles          101                       # Number of stall cycles due to pending traps
system.cpu0.fetch.SquashCycles                5612182                       # Number of cycles fetch has spent squashing
system.cpu0.fetch.branchRate                 0.205580                       # Number of branch fetches per cycle
system.cpu0.fetch.icacheStallCycles          12444635                       # Number of cycles fetch is stalled on an Icache miss
system.cpu0.fetch.predictedBranches          11519210                       # Number of branches that fetch has predicted taken
system.cpu0.fetch.rate                       1.189604                       # Number of inst fetches per cycle
system.cpu0.fetch.rateDist::samples          70867513                       # Number of instructions fetched each cycle (Total)
system.cpu0.fetch.rateDist::mean             1.196034                       # Number of instructions fetched each cycle (Total)
system.cpu0.fetch.rateDist::stdev            1.327913                       # Number of instructions fetched each cycle (Total)
system.cpu0.fetch.rateDist::underflows              0      0.00%      0.00% # Number of instructions fetched each cycle (Total)
system.cpu0.fetch.rateDist::0                23501216     33.16%     33.16% # Number of instructions fetched each cycle (Total)
system.cpu0.fetch.rateDist::1                28024020     39.54%     72.71% # Number of instructions fetched each cycle (Total)
system.cpu0.fetch.rateDist::2                10400726     14.68%     87.38% # Number of instructions fetched each cycle (Total)
system.cpu0.fetch.rateDist::3                 4419548      6.24%     93.62% # Number of instructions fetched each cycle (Total)
system.cpu0.fetch.rateDist::4                 1572380      2.22%     95.84% # Number of instructions fetched each cycle (Total)
system.cpu0.fetch.rateDist::5                 1317894      1.86%     97.70% # Number of instructions fetched each cycle (Total)
system.cpu0.fetch.rateDist::6                 1628048      2.30%     99.99% # Number of instructions fetched each cycle (Total)
system.cpu0.fetch.rateDist::7                     897      0.00%    100.00% # Number of instructions fetched each cycle (Total)
system.cpu0.fetch.rateDist::8                    2784      0.00%    100.00% # Number of instructions fetched each cycle (Total)
system.cpu0.fetch.rateDist::overflows               0      0.00%    100.00% # Number of instructions fetched each cycle (Total)
system.cpu0.fetch.rateDist::min_value               0                       # Number of instructions fetched each cycle (Total)
system.cpu0.fetch.rateDist::max_value               8                       # Number of instructions fetched each cycle (Total)
system.cpu0.fetch.rateDist::total            70867513                       # Number of instructions fetched each cycle (Total)
system.cpu0.fp_regfile_reads                 10637514                       # number of floating regfile reads
system.cpu0.fp_regfile_writes                 3283140                       # number of floating regfile writes
system.cpu0.idleCycles                         327553                       # Total number of cycles that the CPU has spent unscheduled due to idling
system.cpu0.iew.branchMispredicts             1621639                       # Number of branch mispredicts detected at execute
system.cpu0.iew.exec_branches                10592094                       # Number of branches executed
system.cpu0.iew.exec_nop                            0                       # number of nop insts executed
system.cpu0.iew.exec_rate                    0.927075                       # Inst execution rate
system.cpu0.iew.exec_refs                    10016248                       # number of memory reference insts executed
system.cpu0.iew.exec_stores                   2650362                       # Number of stores executed
system.cpu0.iew.exec_swp                            0                       # number of swp insts executed
system.cpu0.iew.iewBlockCycles                8740067                       # Number of cycles IEW is blocking
system.cpu0.iew.iewDispLoadInsts              7502261                       # Number of dispatched load instructions
system.cpu0.iew.iewDispNonSpecInsts             66465                       # Number of dispatched non-speculative instructions
system.cpu0.iew.iewDispSquashedInsts           447306                       # Number of squashed instructions skipped by dispatch
system.cpu0.iew.iewDispStoreInsts             3119162                       # Number of dispatched store instructions
system.cpu0.iew.iewDispatchedInsts           69800502                       # Number of instructions dispatched to IQ
system.cpu0.iew.iewExecLoadInsts              7365886                       # Number of load instructions executed
system.cpu0.iew.iewExecSquashedInsts          1505424                       # Number of squashed instructions skipped in execute
system.cpu0.iew.iewExecutedInsts             66003167                       # Number of executed instructions
system.cpu0.iew.iewIQFullEvents                 44840                       # Number of times the IQ has become full, causing a stall
system.cpu0.iew.iewIdleCycles                       0                       # Number of cycles IEW is idle
system.cpu0.iew.iewLSQFullEvents                43487                       # Number of times the LSQ has become full, causing a stall
system.cpu0.iew.iewSquashCycles               1505598                       # Number of cycles IEW is squashing
system.cpu0.iew.iewUnblockCycles               196054                       # Number of cycles IEW is unblocking
system.cpu0.iew.lsq.thread0.blockedLoads            0                       # Number of blocked loads due to partial load-store forwarding
system.cpu0.iew.lsq.thread0.cacheBlocked         4520                       # Number of times an access to memory failed due to the cache being blocked
system.cpu0.iew.lsq.thread0.forwLoads          148164                       # Number of loads that had data forwarded from stores
system.cpu0.iew.lsq.thread0.ignoredResponses         1523                       # Number of memory responses ignored because the instruction is squashed
system.cpu0.iew.lsq.thread0.invAddrLoads            0                       # Number of loads ignored due to an invalid address
system.cpu0.iew.lsq.thread0.invAddrSwpfs            0                       # Number of software prefetches ignored due to an invalid address
system.cpu0.iew.lsq.thread0.memOrderViolation          299                       # Number of memory ordering violations
system.cpu0.iew.lsq.thread0.rescheduledLoads           97                       # Number of loads that were rescheduled
system.cpu0.iew.lsq.thread0.squashedLoads      2363805                       # Number of loads squashed
system.cpu0.iew.lsq.thread0.squashedStores       985902                       # Number of stores squashed
system.cpu0.iew.memOrderViolationEvents           299                       # Number of memory order violations
system.cpu0.iew.predictedNotTakenIncorrect        72971                       # Number of branches that were predicted not taken incorrectly
system.cpu0.iew.predictedTakenIncorrect       1548668                       # Number of branches that were predicted taken incorrectly
system.cpu0.iew.wb_consumers                 50417308                       # num instructions consuming a value
system.cpu0.iew.wb_count                     65414922                       # cumulative count of insts written-back
system.cpu0.iew.wb_fanout                    0.824980                       # average fanout of values written-back
system.cpu0.iew.wb_producers                 41593250                       # num instructions producing a value
system.cpu0.iew.wb_rate                      0.918813                       # insts written-back per cycle
system.cpu0.iew.wb_sent                      65460835                       # cumulative count of insts sent to commit
system.cpu0.int_regfile_reads                76289395                       # number of integer regfile reads
system.cpu0.int_regfile_writes               49811458                       # number of integer regfile writes
system.cpu0.ipc                              0.742357                       # IPC: Instructions Per Cycle
system.cpu0.ipc_total                        0.742357                       # IPC: Total IPC of All Threads
system.cpu0.iq.FU_type_0::No_OpClass           131842      0.20%      0.20% # Type of FU issued
system.cpu0.iq.FU_type_0::IntAlu             50918725     75.43%     75.62% # Type of FU issued
system.cpu0.iq.FU_type_0::IntMult                6160      0.01%     75.63% # Type of FU issued
system.cpu0.iq.FU_type_0::IntDiv                 8243      0.01%     75.64% # Type of FU issued
system.cpu0.iq.FU_type_0::FloatAdd            1578378      2.34%     77.98% # Type of FU issued
system.cpu0.iq.FU_type_0::FloatCmp            2958264      4.38%     82.36% # Type of FU issued
system.cpu0.iq.FU_type_0::FloatCvt             944184      1.40%     83.76% # Type of FU issued
system.cpu0.iq.FU_type_0::FloatMult            786823      1.17%     84.93% # Type of FU issued
system.cpu0.iq.FU_type_0::FloatMultAcc              0      0.00%     84.93% # Type of FU issued
system.cpu0.iq.FU_type_0::FloatDiv                  2      0.00%     84.93% # Type of FU issued
system.cpu0.iq.FU_type_0::FloatMisc                 6      0.00%     84.93% # Type of FU issued
system.cpu0.iq.FU_type_0::FloatSqrt                 0      0.00%     84.93% # Type of FU issued
system.cpu0.iq.FU_type_0::SimdAdd                   0      0.00%     84.93% # Type of FU issued
system.cpu0.iq.FU_type_0::SimdAddAcc                0      0.00%     84.93% # Type of FU issued
system.cpu0.iq.FU_type_0::SimdAlu                   0      0.00%     84.93% # Type of FU issued
system.cpu0.iq.FU_type_0::SimdCmp                   0      0.00%     84.93% # Type of FU issued
system.cpu0.iq.FU_type_0::SimdCvt                   0      0.00%     84.93% # Type of FU issued
system.cpu0.iq.FU_type_0::SimdMisc                  0      0.00%     84.93% # Type of FU issued
system.cpu0.iq.FU_type_0::SimdMult                  0      0.00%     84.93% # Type of FU issued
system.cpu0.iq.FU_type_0::SimdMultAcc               0      0.00%     84.93% # Type of FU issued
system.cpu0.iq.FU_type_0::SimdShift                 0      0.00%     84.93% # Type of FU issued
system.cpu0.iq.FU_type_0::SimdShiftAcc              0      0.00%     84.93% # Type of FU issued
system.cpu0.iq.FU_type_0::SimdDiv                   0      0.00%     84.93% # Type of FU issued
system.cpu0.iq.FU_type_0::SimdSqrt                  0      0.00%     84.93% # Type of FU issued
system.cpu0.iq.FU_type_0::SimdFloatAdd              0      0.00%     84.93% # Type of FU issued
system.cpu0.iq.FU_type_0::SimdFloatAlu              0      0.00%     84.93% # Type of FU issued
system.cpu0.iq.FU_type_0::SimdFloatCmp              0      0.00%     84.93% # Type of FU issued
system.cpu0.iq.FU_type_0::SimdFloatCvt              0      0.00%     84.93% # Type of FU issued
system.cpu0.iq.FU_type_0::SimdFloatDiv              0      0.00%     84.93% # Type of FU issued
system.cpu0.iq.FU_type_0::SimdFloatMisc             0      0.00%     84.93% # Type of FU issued
system.cpu0.iq.FU_type_0::SimdFloatMult             0      0.00%     84.93% # Type of FU issued
system.cpu0.iq.FU_type_0::SimdFloatMultAcc            0      0.00%     84.93% # Type of FU issued
system.cpu0.iq.FU_type_0::SimdFloatSqrt             0      0.00%     84.93% # Type of FU issued
system.cpu0.iq.FU_type_0::SimdReduceAdd             0      0.00%     84.93% # Type of FU issued
system.cpu0.iq.FU_type_0::SimdReduceAlu             0      0.00%     84.93% # Type of FU issued
system.cpu0.iq.FU_type_0::SimdReduceCmp             0      0.00%     84.93% # Type of FU issued
system.cpu0.iq.FU_type_0::SimdFloatReduceAdd            0      0.00%     84.93% # Type of FU issued
system.cpu0.iq.FU_type_0::SimdFloatReduceCmp            0      0.00%     84.93% # Type of FU issued
system.cpu0.iq.FU_type_0::SimdAes                   0      0.00%     84.93% # Type of FU issued
system.cpu0.iq.FU_type_0::SimdAesMix                0      0.00%     84.93% # Type of FU issued
system.cpu0.iq.FU_type_0::SimdSha1Hash              0      0.00%     84.93% # Type of FU issued
system.cpu0.iq.FU_type_0::SimdSha1Hash2             0      0.00%     84.93% # Type of FU issued
system.cpu0.iq.FU_type_0::SimdSha256Hash            0      0.00%     84.93% # Type of FU issued
system.cpu0.iq.FU_type_0::SimdSha256Hash2            0      0.00%     84.93% # Type of FU issued
system.cpu0.iq.FU_type_0::SimdShaSigma2             0      0.00%     84.93% # Type of FU issued
system.cpu0.iq.FU_type_0::SimdShaSigma3             0      0.00%     84.93% # Type of FU issued
system.cpu0.iq.FU_type_0::SimdPredAlu               0      0.00%     84.93% # Type of FU issued
system.cpu0.iq.FU_type_0::MemRead             7454493     11.04%     95.97% # Type of FU issued
system.cpu0.iq.FU_type_0::MemWrite            2655862      3.93%     99.90% # Type of FU issued
system.cpu0.iq.FU_type_0::FloatMemRead          65581      0.10%    100.00% # Type of FU issued
system.cpu0.iq.FU_type_0::FloatMemWrite            29      0.00%    100.00% # Type of FU issued
system.cpu0.iq.FU_type_0::IprAccess                 0      0.00%    100.00% # Type of FU issued
system.cpu0.iq.FU_type_0::InstPrefetch              0      0.00%    100.00% # Type of FU issued
system.cpu0.iq.FU_type_0::total              67508592                       # Type of FU issued
system.cpu0.iq.fp_alu_accesses                6333279                       # Number of floating point alu accesses
system.cpu0.iq.fp_inst_queue_reads           12666546                       # Number of floating instruction queue reads
system.cpu0.iq.fp_inst_queue_wakeup_accesses      6241438                       # Number of floating instruction queue wakeup accesses
system.cpu0.iq.fp_inst_queue_writes           7067539                       # Number of floating instruction queue writes
system.cpu0.iq.fu_busy_cnt                     224010                       # FU busy when requested
system.cpu0.iq.fu_busy_rate                  0.003318                       # FU busy rate (busy events/executed inst)
system.cpu0.iq.fu_full::No_OpClass                  0      0.00%      0.00% # attempts to use FU when none available
system.cpu0.iq.fu_full::IntAlu                 167102     74.60%     74.60% # attempts to use FU when none available
system.cpu0.iq.fu_full::IntMult                 26978     12.04%     86.64% # attempts to use FU when none available
system.cpu0.iq.fu_full::IntDiv                   7493      3.34%     89.98% # attempts to use FU when none available
system.cpu0.iq.fu_full::FloatAdd                    0      0.00%     89.98% # attempts to use FU when none available
system.cpu0.iq.fu_full::FloatCmp                    0      0.00%     89.98% # attempts to use FU when none available
system.cpu0.iq.fu_full::FloatCvt                    6      0.00%     89.99% # attempts to use FU when none available
system.cpu0.iq.fu_full::FloatMult                   0      0.00%     89.99% # attempts to use FU when none available
system.cpu0.iq.fu_full::FloatMultAcc                0      0.00%     89.99% # attempts to use FU when none available
system.cpu0.iq.fu_full::FloatDiv                    0      0.00%     89.99% # attempts to use FU when none available
system.cpu0.iq.fu_full::FloatMisc                   0      0.00%     89.99% # attempts to use FU when none available
system.cpu0.iq.fu_full::FloatSqrt                   0      0.00%     89.99% # attempts to use FU when none available
system.cpu0.iq.fu_full::SimdAdd                     0      0.00%     89.99% # attempts to use FU when none available
system.cpu0.iq.fu_full::SimdAddAcc                  0      0.00%     89.99% # attempts to use FU when none available
system.cpu0.iq.fu_full::SimdAlu                     0      0.00%     89.99% # attempts to use FU when none available
system.cpu0.iq.fu_full::SimdCmp                     0      0.00%     89.99% # attempts to use FU when none available
system.cpu0.iq.fu_full::SimdCvt                     0      0.00%     89.99% # attempts to use FU when none available
system.cpu0.iq.fu_full::SimdMisc                    0      0.00%     89.99% # attempts to use FU when none available
system.cpu0.iq.fu_full::SimdMult                    0      0.00%     89.99% # attempts to use FU when none available
system.cpu0.iq.fu_full::SimdMultAcc                 0      0.00%     89.99% # attempts to use FU when none available
system.cpu0.iq.fu_full::SimdShift                   0      0.00%     89.99% # attempts to use FU when none available
system.cpu0.iq.fu_full::SimdShiftAcc                0      0.00%     89.99% # attempts to use FU when none available
system.cpu0.iq.fu_full::SimdDiv                     0      0.00%     89.99% # attempts to use FU when none available
system.cpu0.iq.fu_full::SimdSqrt                    0      0.00%     89.99% # attempts to use FU when none available
system.cpu0.iq.fu_full::SimdFloatAdd                0      0.00%     89.99% # attempts to use FU when none available
system.cpu0.iq.fu_full::SimdFloatAlu                0      0.00%     89.99% # attempts to use FU when none available
system.cpu0.iq.fu_full::SimdFloatCmp                0      0.00%     89.99% # attempts to use FU when none available
system.cpu0.iq.fu_full::SimdFloatCvt                0      0.00%     89.99% # attempts to use FU when none available
system.cpu0.iq.fu_full::SimdFloatDiv                0      0.00%     89.99% # attempts to use FU when none available
system.cpu0.iq.fu_full::SimdFloatMisc               0      0.00%     89.99% # attempts to use FU when none available
system.cpu0.iq.fu_full::SimdFloatMult               0      0.00%     89.99% # attempts to use FU when none available
system.cpu0.iq.fu_full::SimdFloatMultAcc            0      0.00%     89.99% # attempts to use FU when none available
system.cpu0.iq.fu_full::SimdFloatSqrt               0      0.00%     89.99% # attempts to use FU when none available
system.cpu0.iq.fu_full::SimdReduceAdd               0      0.00%     89.99% # attempts to use FU when none available
system.cpu0.iq.fu_full::SimdReduceAlu               0      0.00%     89.99% # attempts to use FU when none available
system.cpu0.iq.fu_full::SimdReduceCmp               0      0.00%     89.99% # attempts to use FU when none available
system.cpu0.iq.fu_full::SimdFloatReduceAdd            0      0.00%     89.99% # attempts to use FU when none available
system.cpu0.iq.fu_full::SimdFloatReduceCmp            0      0.00%     89.99% # attempts to use FU when none available
system.cpu0.iq.fu_full::SimdAes                     0      0.00%     89.99% # attempts to use FU when none available
system.cpu0.iq.fu_full::SimdAesMix                  0      0.00%     89.99% # attempts to use FU when none available
system.cpu0.iq.fu_full::SimdSha1Hash                0      0.00%     89.99% # attempts to use FU when none available
system.cpu0.iq.fu_full::SimdSha1Hash2               0      0.00%     89.99% # attempts to use FU when none available
system.cpu0.iq.fu_full::SimdSha256Hash              0      0.00%     89.99% # attempts to use FU when none available
system.cpu0.iq.fu_full::SimdSha256Hash2             0      0.00%     89.99% # attempts to use FU when none available
system.cpu0.iq.fu_full::SimdShaSigma2               0      0.00%     89.99% # attempts to use FU when none available
system.cpu0.iq.fu_full::SimdShaSigma3               0      0.00%     89.99% # attempts to use FU when none available
system.cpu0.iq.fu_full::SimdPredAlu                 0      0.00%     89.99% # attempts to use FU when none available
system.cpu0.iq.fu_full::MemRead                 20703      9.24%     99.23% # attempts to use FU when none available
system.cpu0.iq.fu_full::MemWrite                 1722      0.77%    100.00% # attempts to use FU when none available
system.cpu0.iq.fu_full::FloatMemRead                2      0.00%    100.00% # attempts to use FU when none available
system.cpu0.iq.fu_full::FloatMemWrite               4      0.00%    100.00% # attempts to use FU when none available
system.cpu0.iq.fu_full::IprAccess                   0      0.00%    100.00% # attempts to use FU when none available
system.cpu0.iq.fu_full::InstPrefetch                0      0.00%    100.00% # attempts to use FU when none available
system.cpu0.iq.int_alu_accesses              61267481                       # Number of integer alu accesses
system.cpu0.iq.int_inst_queue_reads         193515010                       # Number of integer instruction queue reads
system.cpu0.iq.int_inst_queue_wakeup_accesses     59173484                       # Number of integer instruction queue wakeup accesses
system.cpu0.iq.int_inst_queue_writes         79615684                       # Number of integer instruction queue writes
system.cpu0.iq.iqInstsAdded                  69602264                       # Number of instructions added to the IQ (excludes non-spec)
system.cpu0.iq.iqInstsIssued                 67508592                       # Number of instructions issued
system.cpu0.iq.iqNonSpecInstsAdded             198238                       # Number of non-speculative instructions added to the IQ
system.cpu0.iq.iqSquashedInstsExamined       16882540                       # Number of squashed instructions iterated over during squash; mainly for profiling
system.cpu0.iq.iqSquashedInstsIssued            72850                       # Number of squashed instructions issued
system.cpu0.iq.iqSquashedNonSpecRemoved           265                       # Number of squashed non-spec instructions that were removed
system.cpu0.iq.iqSquashedOperandsExamined      4445708                       # Number of squashed operands that are examined and possibly removed from graph
system.cpu0.iq.issued_per_cycle::samples     70867513                       # Number of insts issued each cycle
system.cpu0.iq.issued_per_cycle::mean        0.952603                       # Number of insts issued each cycle
system.cpu0.iq.issued_per_cycle::stdev       1.159028                       # Number of insts issued each cycle
system.cpu0.iq.issued_per_cycle::underflows            0      0.00%      0.00% # Number of insts issued each cycle
system.cpu0.iq.issued_per_cycle::0           30972822     43.71%     43.71% # Number of insts issued each cycle
system.cpu0.iq.issued_per_cycle::1           22683192     32.01%     75.71% # Number of insts issued each cycle
system.cpu0.iq.issued_per_cycle::2           11907149     16.80%     92.52% # Number of insts issued each cycle
system.cpu0.iq.issued_per_cycle::3            2301261      3.25%     95.76% # Number of insts issued each cycle
system.cpu0.iq.issued_per_cycle::4            1439149      2.03%     97.79% # Number of insts issued each cycle
system.cpu0.iq.issued_per_cycle::5            1243775      1.76%     99.55% # Number of insts issued each cycle
system.cpu0.iq.issued_per_cycle::6             158026      0.22%     99.77% # Number of insts issued each cycle
system.cpu0.iq.issued_per_cycle::7             113420      0.16%     99.93% # Number of insts issued each cycle
system.cpu0.iq.issued_per_cycle::8              48719      0.07%    100.00% # Number of insts issued each cycle
system.cpu0.iq.issued_per_cycle::overflows            0      0.00%    100.00% # Number of insts issued each cycle
system.cpu0.iq.issued_per_cycle::min_value            0                       # Number of insts issued each cycle
system.cpu0.iq.issued_per_cycle::max_value            8                       # Number of insts issued each cycle
system.cpu0.iq.issued_per_cycle::total       70867513                       # Number of insts issued each cycle
system.cpu0.iq.rate                          0.948220                       # Inst issue rate
system.cpu0.iq.vec_alu_accesses                     0                       # Number of vector alu accesses
system.cpu0.iq.vec_inst_queue_reads                 0                       # Number of vector instruction queue reads
system.cpu0.iq.vec_inst_queue_wakeup_accesses            0                       # Number of vector instruction queue wakeup accesses
system.cpu0.iq.vec_inst_queue_writes                0                       # Number of vector instruction queue writes
system.cpu0.itb.accesses                            0                       # DTB accesses
system.cpu0.itb.hits                                0                       # DTB hits
system.cpu0.itb.misses                              0                       # DTB misses
system.cpu0.itb.read_accesses                       0                       # DTB read accesses
system.cpu0.itb.read_hits                           0                       # DTB read hits
system.cpu0.itb.read_misses                         0                       # DTB read misses
system.cpu0.itb.write_accesses                      0                       # DTB write accesses
system.cpu0.itb.write_hits                          0                       # DTB write hits
system.cpu0.itb.write_misses                        0                       # DTB write misses
system.cpu0.memDep0.conflictingLoads           487190                       # Number of conflicting loads.
system.cpu0.memDep0.conflictingStores          148796                       # Number of conflicting stores.
system.cpu0.memDep0.insertedLoads             7502261                       # Number of loads inserted to the mem dependence unit.
system.cpu0.memDep0.insertedStores            3119162                       # Number of stores inserted to the mem dependence unit.
system.cpu0.misc_regfile_reads                9328030                       # number of misc regfile reads
system.cpu0.misc_regfile_writes               5570590                       # number of misc regfile writes
system.cpu0.numCycles                        71195066                       # number of cpu cycles simulated
system.cpu0.numWorkItemsCompleted                   0                       # number of work items this cpu completed
system.cpu0.numWorkItemsStarted                     0                       # number of work items this cpu started
system.cpu0.quiesceCycles                     1026776                       # Total number of cycles that CPU has spent quiesced or waiting for an interrupt
system.cpu0.rename.BlockCycles                9441191                       # Number of cycles rename is blocking
system.cpu0.rename.CommittedMaps             43414742                       # Number of HB maps that are committed
system.cpu0.rename.IQFullEvents                509386                       # Number of times rename has blocked due to IQ full
system.cpu0.rename.IdleCycles                17812139                       # Number of cycles rename is idle
system.cpu0.rename.LQFullEvents                 16948                       # Number of times rename has blocked due to LQ full
system.cpu0.rename.ROBFullEvents                  429                       # Number of times rename has blocked due to ROB full
system.cpu0.rename.RenameLookups             96452424                       # Number of register rename lookups that rename has made
system.cpu0.rename.RenamedInsts              73407369                       # Number of instructions processed by rename
system.cpu0.rename.RenamedOperands           59234723                       # Number of destination operands rename has renamed
system.cpu0.rename.RunCycles                 41340400                       # Number of cycles rename is running
system.cpu0.rename.SQFullEvents                 85342                       # Number of times rename has blocked due to SQ full
system.cpu0.rename.SquashCycles               1505598                       # Number of cycles rename is squashing
system.cpu0.rename.UnblockCycles               747466                       # Number of cycles rename is unblocking
system.cpu0.rename.UndoneMaps                15819976                       # Number of HB maps that are undone due to squashing
system.cpu0.rename.fp_rename_lookups         11216916                       # Number of floating rename lookups
system.cpu0.rename.int_rename_lookups        85235508                       # Number of integer rename lookups
system.cpu0.rename.serializeStallCycles         20719                       # count of cycles rename stalled for serializing inst
system.cpu0.rename.serializingInsts               570                       # count of serializing insts renamed
system.cpu0.rename.skidInsts                  1170773                       # count of insts added to the skid buffer
system.cpu0.rename.tempSerializingInsts           570                       # count of temporary serializing insts renamed
system.cpu0.rob.rob_reads                   137754854                       # The number of ROB reads
system.cpu0.rob.rob_writes                  142215821                       # The number of ROB writes
system.cpu0.timesIdled                           9081                       # Number of times that the entire CPU went into an idle state and unscheduled itself
system.cpu0.workload.numSyscalls                  142                       # Number of system calls
system.cpu1.branchPred.BTBCorrect                   0                       # Number of correct BTB predictions (this stat may not work properly.
system.cpu1.branchPred.BTBHitPct            94.766272                       # BTB Hit Percentage
system.cpu1.branchPred.BTBHits                 951460                       # Number of BTB hits
system.cpu1.branchPred.BTBLookups             1004007                       # Number of BTB lookups
system.cpu1.branchPred.RASInCorrect                 0                       # Number of incorrect RAS predictions.
system.cpu1.branchPred.condIncorrect           179882                       # Number of conditional branches incorrect
system.cpu1.branchPred.condPredicted          1256132                       # Number of conditional branches predicted
system.cpu1.branchPred.indirectHits             10753                       # Number of indirect target hits.
system.cpu1.branchPred.indirectLookups          13652                       # Number of indirect predictor lookups.
system.cpu1.branchPred.indirectMisses            2899                       # Number of indirect misses.
system.cpu1.branchPred.lookups                1546552                       # Number of BP lookups
system.cpu1.branchPred.usedRAS                      0                       # Number of times the RAS was used to get a target.
system.cpu1.branchPredindirectMispredicted         1820                       # Number of mispredicted indirect branches.
system.cpu1.commit.amos                         65651                       # Number of atomic instructions committed
system.cpu1.commit.branchMispredicts           173129                       # The number of times a branch was mispredicted
system.cpu1.commit.branches                    929399                       # Number of branches committed
system.cpu1.commit.bw_lim_events                20677                       # number cycles where commit BW limit reached
system.cpu1.commit.commitNonSpecStalls         197196                       # The number of times commit has been forced to stall to communicate backwards
system.cpu1.commit.commitSquashedInsts        1307709                       # The number of squashed insts skipped by commit
system.cpu1.commit.committedInsts             3806403                       # Number of instructions committed
system.cpu1.commit.committedOps               3872112                       # Number of ops (including micro ops) committed
system.cpu1.commit.committed_per_cycle::samples     13233497                       # Number of insts commited each cycle
system.cpu1.commit.committed_per_cycle::mean     0.292599                       # Number of insts commited each cycle
system.cpu1.commit.committed_per_cycle::stdev     0.839804                       # Number of insts commited each cycle
system.cpu1.commit.committed_per_cycle::underflows            0      0.00%      0.00% # Number of insts commited each cycle
system.cpu1.commit.committed_per_cycle::0     11198532     84.62%     84.62% # Number of insts commited each cycle
system.cpu1.commit.committed_per_cycle::1      1075327      8.13%     92.75% # Number of insts commited each cycle
system.cpu1.commit.committed_per_cycle::2       393785      2.98%     95.72% # Number of insts commited each cycle
system.cpu1.commit.committed_per_cycle::3       385897      2.92%     98.64% # Number of insts commited each cycle
system.cpu1.commit.committed_per_cycle::4       122128      0.92%     99.56% # Number of insts commited each cycle
system.cpu1.commit.committed_per_cycle::5        28428      0.21%     99.78% # Number of insts commited each cycle
system.cpu1.commit.committed_per_cycle::6         5605      0.04%     99.82% # Number of insts commited each cycle
system.cpu1.commit.committed_per_cycle::7         3118      0.02%     99.84% # Number of insts commited each cycle
system.cpu1.commit.committed_per_cycle::8        20677      0.16%    100.00% # Number of insts commited each cycle
system.cpu1.commit.committed_per_cycle::overflows            0      0.00%    100.00% # Number of insts commited each cycle
system.cpu1.commit.committed_per_cycle::min_value            0                       # Number of insts commited each cycle
system.cpu1.commit.committed_per_cycle::max_value            8                       # Number of insts commited each cycle
system.cpu1.commit.committed_per_cycle::total     13233497                       # Number of insts commited each cycle
system.cpu1.commit.fp_insts                        24                       # Number of committed floating point instructions.
system.cpu1.commit.function_calls               17193                       # Number of function calls committed.
system.cpu1.commit.int_insts                  3589908                       # Number of committed integer instructions.
system.cpu1.commit.loads                       986141                       # Number of loads committed
system.cpu1.commit.membars                     131319                       # Number of memory barriers committed
system.cpu1.commit.op_class_0::No_OpClass       131319      3.39%      3.39% # Class of committed instruction
system.cpu1.commit.op_class_0::IntAlu         2335073     60.30%     63.70% # Class of committed instruction
system.cpu1.commit.op_class_0::IntMult            638      0.02%     63.71% # Class of committed instruction
system.cpu1.commit.op_class_0::IntDiv              30      0.00%     63.71% # Class of committed instruction
system.cpu1.commit.op_class_0::FloatAdd             0      0.00%     63.71% # Class of committed instruction
system.cpu1.commit.op_class_0::FloatCmp             0      0.00%     63.71% # Class of committed instruction
system.cpu1.commit.op_class_0::FloatCvt             0      0.00%     63.71% # Class of committed instruction
system.cpu1.commit.op_class_0::FloatMult            0      0.00%     63.71% # Class of committed instruction
system.cpu1.commit.op_class_0::FloatMultAcc            0      0.00%     63.71% # Class of committed instruction
system.cpu1.commit.op_class_0::FloatDiv             0      0.00%     63.71% # Class of committed instruction
system.cpu1.commit.op_class_0::FloatMisc            0      0.00%     63.71% # Class of committed instruction
system.cpu1.commit.op_class_0::FloatSqrt            0      0.00%     63.71% # Class of committed instruction
system.cpu1.commit.op_class_0::SimdAdd              0      0.00%     63.71% # Class of committed instruction
system.cpu1.commit.op_class_0::SimdAddAcc            0      0.00%     63.71% # Class of committed instruction
system.cpu1.commit.op_class_0::SimdAlu              0      0.00%     63.71% # Class of committed instruction
system.cpu1.commit.op_class_0::SimdCmp              0      0.00%     63.71% # Class of committed instruction
system.cpu1.commit.op_class_0::SimdCvt              0      0.00%     63.71% # Class of committed instruction
system.cpu1.commit.op_class_0::SimdMisc             0      0.00%     63.71% # Class of committed instruction
system.cpu1.commit.op_class_0::SimdMult             0      0.00%     63.71% # Class of committed instruction
system.cpu1.commit.op_class_0::SimdMultAcc            0      0.00%     63.71% # Class of committed instruction
system.cpu1.commit.op_class_0::SimdShift            0      0.00%     63.71% # Class of committed instruction
system.cpu1.commit.op_class_0::SimdShiftAcc            0      0.00%     63.71% # Class of committed instruction
system.cpu1.commit.op_class_0::SimdDiv              0      0.00%     63.71% # Class of committed instruction
system.cpu1.commit.op_class_0::SimdSqrt             0      0.00%     63.71% # Class of committed instruction
system.cpu1.commit.op_class_0::SimdFloatAdd            0      0.00%     63.71% # Class of committed instruction
system.cpu1.commit.op_class_0::SimdFloatAlu            0      0.00%     63.71% # Class of committed instruction
system.cpu1.commit.op_class_0::SimdFloatCmp            0      0.00%     63.71% # Class of committed instruction
system.cpu1.commit.op_class_0::SimdFloatCvt            0      0.00%     63.71% # Class of committed instruction
system.cpu1.commit.op_class_0::SimdFloatDiv            0      0.00%     63.71% # Class of committed instruction
system.cpu1.commit.op_class_0::SimdFloatMisc            0      0.00%     63.71% # Class of committed instruction
system.cpu1.commit.op_class_0::SimdFloatMult            0      0.00%     63.71% # Class of committed instruction
system.cpu1.commit.op_class_0::SimdFloatMultAcc            0      0.00%     63.71% # Class of committed instruction
system.cpu1.commit.op_class_0::SimdFloatSqrt            0      0.00%     63.71% # Class of committed instruction
system.cpu1.commit.op_class_0::SimdReduceAdd            0      0.00%     63.71% # Class of committed instruction
system.cpu1.commit.op_class_0::SimdReduceAlu            0      0.00%     63.71% # Class of committed instruction
system.cpu1.commit.op_class_0::SimdReduceCmp            0      0.00%     63.71% # Class of committed instruction
system.cpu1.commit.op_class_0::SimdFloatReduceAdd            0      0.00%     63.71% # Class of committed instruction
system.cpu1.commit.op_class_0::SimdFloatReduceCmp            0      0.00%     63.71% # Class of committed instruction
system.cpu1.commit.op_class_0::SimdAes              0      0.00%     63.71% # Class of committed instruction
system.cpu1.commit.op_class_0::SimdAesMix            0      0.00%     63.71% # Class of committed instruction
system.cpu1.commit.op_class_0::SimdSha1Hash            0      0.00%     63.71% # Class of committed instruction
system.cpu1.commit.op_class_0::SimdSha1Hash2            0      0.00%     63.71% # Class of committed instruction
system.cpu1.commit.op_class_0::SimdSha256Hash            0      0.00%     63.71% # Class of committed instruction
system.cpu1.commit.op_class_0::SimdSha256Hash2            0      0.00%     63.71% # Class of committed instruction
system.cpu1.commit.op_class_0::SimdShaSigma2            0      0.00%     63.71% # Class of committed instruction
system.cpu1.commit.op_class_0::SimdShaSigma3            0      0.00%     63.71% # Class of committed instruction
system.cpu1.commit.op_class_0::SimdPredAlu            0      0.00%     63.71% # Class of committed instruction
system.cpu1.commit.op_class_0::MemRead        1051786     27.16%     90.88% # Class of committed instruction
system.cpu1.commit.op_class_0::MemWrite        353242      9.12%    100.00% # Class of committed instruction
system.cpu1.commit.op_class_0::FloatMemRead            6      0.00%    100.00% # Class of committed instruction
system.cpu1.commit.op_class_0::FloatMemWrite           18      0.00%    100.00% # Class of committed instruction
system.cpu1.commit.op_class_0::IprAccess            0      0.00%    100.00% # Class of committed instruction
system.cpu1.commit.op_class_0::InstPrefetch            0      0.00%    100.00% # Class of committed instruction
system.cpu1.commit.op_class_0::total          3872112                       # Class of committed instruction
system.cpu1.commit.refs                       1405052                       # Number of memory references committed
system.cpu1.commit.swp_count                        0                       # Number of s/w prefetches committed
system.cpu1.commit.vec_insts                        0                       # Number of committed Vector instructions.
system.cpu1.committedInsts                    3806403                       # Number of Instructions Simulated
system.cpu1.committedOps                      3872112                       # Number of Ops (including micro ops) Simulated
system.cpu1.cpi                              3.554025                       # CPI: Cycles Per Instruction
system.cpu1.cpi_total                        3.554025                       # CPI: Total CPI of All Threads
system.cpu1.decode.BlockedCycles              8983559                       # Number of cycles decode is blocked
system.cpu1.decode.BranchMispred                 6887                       # Number of times decode detected a branch misprediction
system.cpu1.decode.BranchResolved              886737                       # Number of times decode resolved a branch
system.cpu1.decode.DecodedInsts               5850606                       # Number of instructions handled by decode
system.cpu1.decode.IdleCycles                  999940                       # Number of cycles decode is idle
system.cpu1.decode.RunCycles                  3140351                       # Number of cycles decode is running
system.cpu1.decode.SquashCycles                173318                       # Number of cycles decode is squashing
system.cpu1.decode.SquashedInsts                12704                       # Number of squashed instructions handled by decode
system.cpu1.decode.UnblockCycles               190937                       # Number of cycles decode is unblocking
system.cpu1.dtb.accesses                            0                       # DTB accesses
system.cpu1.dtb.hits                                0                       # DTB hits
system.cpu1.dtb.misses                              0                       # DTB misses
system.cpu1.dtb.read_accesses                       0                       # DTB read accesses
system.cpu1.dtb.read_hits                           0                       # DTB read hits
system.cpu1.dtb.read_misses                         0                       # DTB read misses
system.cpu1.dtb.write_accesses                      0                       # DTB write accesses
system.cpu1.dtb.write_hits                          0                       # DTB write hits
system.cpu1.dtb.write_misses                        0                       # DTB write misses
system.cpu1.fetch.Branches                    1546552                       # Number of branches that fetch encountered
system.cpu1.fetch.CacheLines                   759156                       # Number of cache lines fetched
system.cpu1.fetch.Cycles                     12445707                       # Number of cycles fetch has run and was not squashing or blocked
system.cpu1.fetch.IcacheSquashes                55210                       # Number of outstanding Icache misses that were squashed
system.cpu1.fetch.IcacheWaitRetryStallCycles            1                       # Number of stall cycles due to full MSHR
system.cpu1.fetch.Insts                       6082696                       # Number of instructions fetch has processed
system.cpu1.fetch.MiscStallCycles                   3                       # Number of cycles fetch has spent waiting on interrupts, or bad addresses, or out of MSHRs
system.cpu1.fetch.SquashCycles                 360142                       # Number of cycles fetch has spent squashing
system.cpu1.fetch.branchRate                 0.114322                       # Number of branch fetches per cycle
system.cpu1.fetch.icacheStallCycles            862323                       # Number of cycles fetch is stalled on an Icache miss
system.cpu1.fetch.predictedBranches            962213                       # Number of branches that fetch has predicted taken
system.cpu1.fetch.rate                       0.449636                       # Number of inst fetches per cycle
system.cpu1.fetch.rateDist::samples          13488105                       # Number of instructions fetched each cycle (Total)
system.cpu1.fetch.rateDist::mean             0.455860                       # Number of instructions fetched each cycle (Total)
system.cpu1.fetch.rateDist::stdev            0.830141                       # Number of instructions fetched each cycle (Total)
system.cpu1.fetch.rateDist::underflows              0      0.00%      0.00% # Number of instructions fetched each cycle (Total)
system.cpu1.fetch.rateDist::0                 9256624     68.63%     68.63% # Number of instructions fetched each cycle (Total)
system.cpu1.fetch.rateDist::1                 2997581     22.22%     90.85% # Number of instructions fetched each cycle (Total)
system.cpu1.fetch.rateDist::2                  806089      5.98%     96.83% # Number of instructions fetched each cycle (Total)
system.cpu1.fetch.rateDist::3                  266434      1.98%     98.80% # Number of instructions fetched each cycle (Total)
system.cpu1.fetch.rateDist::4                   86419      0.64%     99.44% # Number of instructions fetched each cycle (Total)
system.cpu1.fetch.rateDist::5                   59527      0.44%     99.89% # Number of instructions fetched each cycle (Total)
system.cpu1.fetch.rateDist::6                   13385      0.10%     99.98% # Number of instructions fetched each cycle (Total)
system.cpu1.fetch.rateDist::7                     365      0.00%     99.99% # Number of instructions fetched each cycle (Total)
system.cpu1.fetch.rateDist::8                    1681      0.01%    100.00% # Number of instructions fetched each cycle (Total)
system.cpu1.fetch.rateDist::overflows               0      0.00%    100.00% # Number of instructions fetched each cycle (Total)
system.cpu1.fetch.rateDist::min_value               0                       # Number of instructions fetched each cycle (Total)
system.cpu1.fetch.rateDist::max_value               8                       # Number of instructions fetched each cycle (Total)
system.cpu1.fetch.rateDist::total            13488105                       # Number of instructions fetched each cycle (Total)
system.cpu1.fp_regfile_reads                       18                       # number of floating regfile reads
system.cpu1.fp_regfile_writes                       9                       # number of floating regfile writes
system.cpu1.idleCycles                          39948                       # Total number of cycles that the CPU has spent unscheduled due to idling
system.cpu1.iew.branchMispredicts              179012                       # Number of branch mispredicts detected at execute
system.cpu1.iew.exec_branches                 1083219                       # Number of branches executed
system.cpu1.iew.exec_nop                            0                       # number of nop insts executed
system.cpu1.iew.exec_rate                    0.348259                       # Inst execution rate
system.cpu1.iew.exec_refs                     1677118                       # number of memory reference insts executed
system.cpu1.iew.exec_stores                    522915                       # Number of stores executed
system.cpu1.iew.exec_swp                            0                       # number of swp insts executed
system.cpu1.iew.iewBlockCycles                7685274                       # Number of cycles IEW is blocking
system.cpu1.iew.iewDispLoadInsts              1255566                       # Number of dispatched load instructions
system.cpu1.iew.iewDispNonSpecInsts             66018                       # Number of dispatched non-speculative instructions
system.cpu1.iew.iewDispSquashedInsts           165185                       # Number of squashed instructions skipped by dispatch
system.cpu1.iew.iewDispStoreInsts              597383                       # Number of dispatched store instructions
system.cpu1.iew.iewDispatchedInsts            5179456                       # Number of instructions dispatched to IQ
system.cpu1.iew.iewExecLoadInsts              1154203                       # Number of load instructions executed
system.cpu1.iew.iewExecSquashedInsts           217211                       # Number of squashed instructions skipped in execute
system.cpu1.iew.iewExecutedInsts              4711269                       # Number of executed instructions
system.cpu1.iew.iewIQFullEvents                 44834                       # Number of times the IQ has become full, causing a stall
system.cpu1.iew.iewIdleCycles                       0                       # Number of cycles IEW is idle
system.cpu1.iew.iewLSQFullEvents                41717                       # Number of times the LSQ has become full, causing a stall
system.cpu1.iew.iewSquashCycles                173318                       # Number of cycles IEW is squashing
system.cpu1.iew.iewUnblockCycles               194215                       # Number of cycles IEW is unblocking
system.cpu1.iew.lsq.thread0.blockedLoads            0                       # Number of blocked loads due to partial load-store forwarding
system.cpu1.iew.lsq.thread0.cacheBlocked         3122                       # Number of times an access to memory failed due to the cache being blocked
system.cpu1.iew.lsq.thread0.forwLoads           37260                       # Number of loads that had data forwarded from stores
system.cpu1.iew.lsq.thread0.ignoredResponses         1770                       # Number of memory responses ignored because the instruction is squashed
system.cpu1.iew.lsq.thread0.invAddrLoads            0                       # Number of loads ignored due to an invalid address
system.cpu1.iew.lsq.thread0.invAddrSwpfs            0                       # Number of software prefetches ignored due to an invalid address
system.cpu1.iew.lsq.thread0.memOrderViolation          281                       # Number of memory ordering violations
system.cpu1.iew.lsq.thread0.rescheduledLoads           85                       # Number of loads that were rescheduled
system.cpu1.iew.lsq.thread0.squashedLoads       269425                       # Number of loads squashed
system.cpu1.iew.lsq.thread0.squashedStores       178472                       # Number of stores squashed
system.cpu1.iew.memOrderViolationEvents           281                       # Number of memory order violations
system.cpu1.iew.predictedNotTakenIncorrect        86455                       # Number of branches that were predicted not taken incorrectly
system.cpu1.iew.predictedTakenIncorrect         92557                       # Number of branches that were predicted taken incorrectly
system.cpu1.iew.wb_consumers                  2139524                       # num instructions consuming a value
system.cpu1.iew.wb_count                      4609977                       # cumulative count of insts written-back
system.cpu1.iew.wb_fanout                    0.792258                       # average fanout of values written-back
system.cpu1.iew.wb_producers                  1695055                       # num instructions producing a value
system.cpu1.iew.wb_rate                      0.340772                       # insts written-back per cycle
system.cpu1.iew.wb_sent                       4614188                       # cumulative count of insts sent to commit
system.cpu1.int_regfile_reads                 5944329                       # number of integer regfile reads
system.cpu1.int_regfile_writes                2952950                       # number of integer regfile writes
system.cpu1.ipc                              0.281371                       # IPC: Instructions Per Cycle
system.cpu1.ipc_total                        0.281371                       # IPC: Total IPC of All Threads
system.cpu1.iq.FU_type_0::No_OpClass           131404      2.67%      2.67% # Type of FU issued
system.cpu1.iq.FU_type_0::IntAlu              3041151     61.71%     64.37% # Type of FU issued
system.cpu1.iq.FU_type_0::IntMult                 651      0.01%     64.39% # Type of FU issued
system.cpu1.iq.FU_type_0::IntDiv                   30      0.00%     64.39% # Type of FU issued
system.cpu1.iq.FU_type_0::FloatAdd                  0      0.00%     64.39% # Type of FU issued
system.cpu1.iq.FU_type_0::FloatCmp                  0      0.00%     64.39% # Type of FU issued
system.cpu1.iq.FU_type_0::FloatCvt                  0      0.00%     64.39% # Type of FU issued
system.cpu1.iq.FU_type_0::FloatMult                 0      0.00%     64.39% # Type of FU issued
system.cpu1.iq.FU_type_0::FloatMultAcc              0      0.00%     64.39% # Type of FU issued
system.cpu1.iq.FU_type_0::FloatDiv                  0      0.00%     64.39% # Type of FU issued
system.cpu1.iq.FU_type_0::FloatMisc                 0      0.00%     64.39% # Type of FU issued
system.cpu1.iq.FU_type_0::FloatSqrt                 0      0.00%     64.39% # Type of FU issued
system.cpu1.iq.FU_type_0::SimdAdd                   0      0.00%     64.39% # Type of FU issued
system.cpu1.iq.FU_type_0::SimdAddAcc                0      0.00%     64.39% # Type of FU issued
system.cpu1.iq.FU_type_0::SimdAlu                   0      0.00%     64.39% # Type of FU issued
system.cpu1.iq.FU_type_0::SimdCmp                   0      0.00%     64.39% # Type of FU issued
system.cpu1.iq.FU_type_0::SimdCvt                   0      0.00%     64.39% # Type of FU issued
system.cpu1.iq.FU_type_0::SimdMisc                  0      0.00%     64.39% # Type of FU issued
system.cpu1.iq.FU_type_0::SimdMult                  0      0.00%     64.39% # Type of FU issued
system.cpu1.iq.FU_type_0::SimdMultAcc               0      0.00%     64.39% # Type of FU issued
system.cpu1.iq.FU_type_0::SimdShift                 0      0.00%     64.39% # Type of FU issued
system.cpu1.iq.FU_type_0::SimdShiftAcc              0      0.00%     64.39% # Type of FU issued
system.cpu1.iq.FU_type_0::SimdDiv                   0      0.00%     64.39% # Type of FU issued
system.cpu1.iq.FU_type_0::SimdSqrt                  0      0.00%     64.39% # Type of FU issued
system.cpu1.iq.FU_type_0::SimdFloatAdd              0      0.00%     64.39% # Type of FU issued
system.cpu1.iq.FU_type_0::SimdFloatAlu              0      0.00%     64.39% # Type of FU issued
system.cpu1.iq.FU_type_0::SimdFloatCmp              0      0.00%     64.39% # Type of FU issued
system.cpu1.iq.FU_type_0::SimdFloatCvt              0      0.00%     64.39% # Type of FU issued
system.cpu1.iq.FU_type_0::SimdFloatDiv              0      0.00%     64.39% # Type of FU issued
system.cpu1.iq.FU_type_0::SimdFloatMisc             0      0.00%     64.39% # Type of FU issued
system.cpu1.iq.FU_type_0::SimdFloatMult             0      0.00%     64.39% # Type of FU issued
system.cpu1.iq.FU_type_0::SimdFloatMultAcc            0      0.00%     64.39% # Type of FU issued
system.cpu1.iq.FU_type_0::SimdFloatSqrt             0      0.00%     64.39% # Type of FU issued
system.cpu1.iq.FU_type_0::SimdReduceAdd             0      0.00%     64.39% # Type of FU issued
system.cpu1.iq.FU_type_0::SimdReduceAlu             0      0.00%     64.39% # Type of FU issued
system.cpu1.iq.FU_type_0::SimdReduceCmp             0      0.00%     64.39% # Type of FU issued
system.cpu1.iq.FU_type_0::SimdFloatReduceAdd            0      0.00%     64.39% # Type of FU issued
system.cpu1.iq.FU_type_0::SimdFloatReduceCmp            0      0.00%     64.39% # Type of FU issued
system.cpu1.iq.FU_type_0::SimdAes                   0      0.00%     64.39% # Type of FU issued
system.cpu1.iq.FU_type_0::SimdAesMix                0      0.00%     64.39% # Type of FU issued
system.cpu1.iq.FU_type_0::SimdSha1Hash              0      0.00%     64.39% # Type of FU issued
system.cpu1.iq.FU_type_0::SimdSha1Hash2             0      0.00%     64.39% # Type of FU issued
system.cpu1.iq.FU_type_0::SimdSha256Hash            0      0.00%     64.39% # Type of FU issued
system.cpu1.iq.FU_type_0::SimdSha256Hash2            0      0.00%     64.39% # Type of FU issued
system.cpu1.iq.FU_type_0::SimdShaSigma2             0      0.00%     64.39% # Type of FU issued
system.cpu1.iq.FU_type_0::SimdShaSigma3             0      0.00%     64.39% # Type of FU issued
system.cpu1.iq.FU_type_0::SimdPredAlu               0      0.00%     64.39% # Type of FU issued
system.cpu1.iq.FU_type_0::MemRead             1275088     25.87%     90.26% # Type of FU issued
system.cpu1.iq.FU_type_0::MemWrite             480122      9.74%    100.00% # Type of FU issued
system.cpu1.iq.FU_type_0::FloatMemRead             16      0.00%    100.00% # Type of FU issued
system.cpu1.iq.FU_type_0::FloatMemWrite            18      0.00%    100.00% # Type of FU issued
system.cpu1.iq.FU_type_0::IprAccess                 0      0.00%    100.00% # Type of FU issued
system.cpu1.iq.FU_type_0::InstPrefetch              0      0.00%    100.00% # Type of FU issued
system.cpu1.iq.FU_type_0::total               4928480                       # Type of FU issued
system.cpu1.iq.fp_alu_accesses                     41                       # Number of floating point alu accesses
system.cpu1.iq.fp_inst_queue_reads                 79                       # Number of floating instruction queue reads
system.cpu1.iq.fp_inst_queue_wakeup_accesses           27                       # Number of floating instruction queue wakeup accesses
system.cpu1.iq.fp_inst_queue_writes                42                       # Number of floating instruction queue writes
system.cpu1.iq.fu_busy_cnt                      31703                       # FU busy when requested
system.cpu1.iq.fu_busy_rate                  0.006433                       # FU busy rate (busy events/executed inst)
system.cpu1.iq.fu_full::No_OpClass                  0      0.00%      0.00% # attempts to use FU when none available
system.cpu1.iq.fu_full::IntAlu                  10268     32.39%     32.39% # attempts to use FU when none available
system.cpu1.iq.fu_full::IntMult                     0      0.00%     32.39% # attempts to use FU when none available
system.cpu1.iq.fu_full::IntDiv                      0      0.00%     32.39% # attempts to use FU when none available
system.cpu1.iq.fu_full::FloatAdd                    0      0.00%     32.39% # attempts to use FU when none available
system.cpu1.iq.fu_full::FloatCmp                    0      0.00%     32.39% # attempts to use FU when none available
system.cpu1.iq.fu_full::FloatCvt                    0      0.00%     32.39% # attempts to use FU when none available
system.cpu1.iq.fu_full::FloatMult                   0      0.00%     32.39% # attempts to use FU when none available
system.cpu1.iq.fu_full::FloatMultAcc                0      0.00%     32.39% # attempts to use FU when none available
system.cpu1.iq.fu_full::FloatDiv                    0      0.00%     32.39% # attempts to use FU when none available
system.cpu1.iq.fu_full::FloatMisc                   0      0.00%     32.39% # attempts to use FU when none available
system.cpu1.iq.fu_full::FloatSqrt                   0      0.00%     32.39% # attempts to use FU when none available
system.cpu1.iq.fu_full::SimdAdd                     0      0.00%     32.39% # attempts to use FU when none available
system.cpu1.iq.fu_full::SimdAddAcc                  0      0.00%     32.39% # attempts to use FU when none available
system.cpu1.iq.fu_full::SimdAlu                     0      0.00%     32.39% # attempts to use FU when none available
system.cpu1.iq.fu_full::SimdCmp                     0      0.00%     32.39% # attempts to use FU when none available
system.cpu1.iq.fu_full::SimdCvt                     0      0.00%     32.39% # attempts to use FU when none available
system.cpu1.iq.fu_full::SimdMisc                    0      0.00%     32.39% # attempts to use FU when none available
system.cpu1.iq.fu_full::SimdMult                    0      0.00%     32.39% # attempts to use FU when none available
system.cpu1.iq.fu_full::SimdMultAcc                 0      0.00%     32.39% # attempts to use FU when none available
system.cpu1.iq.fu_full::SimdShift                   0      0.00%     32.39% # attempts to use FU when none available
system.cpu1.iq.fu_full::SimdShiftAcc                0      0.00%     32.39% # attempts to use FU when none available
system.cpu1.iq.fu_full::SimdDiv                     0      0.00%     32.39% # attempts to use FU when none available
system.cpu1.iq.fu_full::SimdSqrt                    0      0.00%     32.39% # attempts to use FU when none available
system.cpu1.iq.fu_full::SimdFloatAdd                0      0.00%     32.39% # attempts to use FU when none available
system.cpu1.iq.fu_full::SimdFloatAlu                0      0.00%     32.39% # attempts to use FU when none available
system.cpu1.iq.fu_full::SimdFloatCmp                0      0.00%     32.39% # attempts to use FU when none available
system.cpu1.iq.fu_full::SimdFloatCvt                0      0.00%     32.39% # attempts to use FU when none available
system.cpu1.iq.fu_full::SimdFloatDiv                0      0.00%     32.39% # attempts to use FU when none available
system.cpu1.iq.fu_full::SimdFloatMisc               0      0.00%     32.39% # attempts to use FU when none available
system.cpu1.iq.fu_full::SimdFloatMult               0      0.00%     32.39% # attempts to use FU when none available
system.cpu1.iq.fu_full::SimdFloatMultAcc            0      0.00%     32.39% # attempts to use FU when none available
system.cpu1.iq.fu_full::SimdFloatSqrt               0      0.00%     32.39% # attempts to use FU when none available
system.cpu1.iq.fu_full::SimdReduceAdd               0      0.00%     32.39% # attempts to use FU when none available
system.cpu1.iq.fu_full::SimdReduceAlu               0      0.00%     32.39% # attempts to use FU when none available
system.cpu1.iq.fu_full::SimdReduceCmp               0      0.00%     32.39% # attempts to use FU when none available
system.cpu1.iq.fu_full::SimdFloatReduceAdd            0      0.00%     32.39% # attempts to use FU when none available
system.cpu1.iq.fu_full::SimdFloatReduceCmp            0      0.00%     32.39% # attempts to use FU when none available
system.cpu1.iq.fu_full::SimdAes                     0      0.00%     32.39% # attempts to use FU when none available
system.cpu1.iq.fu_full::SimdAesMix                  0      0.00%     32.39% # attempts to use FU when none available
system.cpu1.iq.fu_full::SimdSha1Hash                0      0.00%     32.39% # attempts to use FU when none available
system.cpu1.iq.fu_full::SimdSha1Hash2               0      0.00%     32.39% # attempts to use FU when none available
system.cpu1.iq.fu_full::SimdSha256Hash              0      0.00%     32.39% # attempts to use FU when none available
system.cpu1.iq.fu_full::SimdSha256Hash2             0      0.00%     32.39% # attempts to use FU when none available
system.cpu1.iq.fu_full::SimdShaSigma2               0      0.00%     32.39% # attempts to use FU when none available
system.cpu1.iq.fu_full::SimdShaSigma3               0      0.00%     32.39% # attempts to use FU when none available
system.cpu1.iq.fu_full::SimdPredAlu                 0      0.00%     32.39% # attempts to use FU when none available
[...]
system.cpu1.dcache.WriteReq_mshr_miss_latency::.cpu1.data    844511767                       # number of WriteReq MSHR miss cycles
system.cpu1.dcache.WriteReq_mshr_miss_latency::total    844511767                       # number of WriteReq MSHR miss cycles
system.cpu1.dcache.WriteReq_mshr_miss_rate::.cpu1.data     0.064167                       # mshr miss rate for WriteReq accesses
system.cpu1.dcache.WriteReq_mshr_miss_rate::total     0.064167                       # mshr miss rate for WriteReq accesses
system.cpu1.dcache.WriteReq_avg_mshr_miss_latency::.cpu1.data 38291.170574                       # average WriteReq mshr miss latency
system.cpu1.dcache.WriteReq_avg_mshr_miss_latency::total 38291.170574                       # average WriteReq mshr miss latency
system.cpu1.dcache.LoadLockedReq_hits::.cpu1.data         2811                       # number of LoadLockedReq hits
system.cpu1.dcache.LoadLockedReq_hits::total         2811                       # number of LoadLockedReq hits
system.cpu1.dcache.LoadLockedReq_misses::.cpu1.data          913                       # number of LoadLockedReq misses
system.cpu1.dcache.LoadLockedReq_misses::total          913                       # number of LoadLockedReq misses
system.cpu1.dcache.LoadLockedReq_miss_latency::.cpu1.data     22277000                       # number of LoadLockedReq miss cycles
system.cpu1.dcache.LoadLockedReq_miss_latency::total     22277000                       # number of LoadLockedReq miss cycles
system.cpu1.dcache.LoadLockedReq_accesses::.cpu1.data         3724                       # number of LoadLockedReq accesses(hits+misses)
system.cpu1.dcache.LoadLockedReq_accesses::total         3724                       # number of LoadLockedReq accesses(hits+misses)
system.cpu1.dcache.LoadLockedReq_miss_rate::.cpu1.data     0.245166                       # miss rate for LoadLockedReq accesses
system.cpu1.dcache.LoadLockedReq_miss_rate::total     0.245166                       # miss rate for LoadLockedReq accesses
system.cpu1.dcache.LoadLockedReq_avg_miss_latency::.cpu1.data 24399.780942                       # average LoadLockedReq miss latency
system.cpu1.dcache.LoadLockedReq_avg_miss_latency::total 24399.780942                       # average LoadLockedReq miss latency
system.cpu1.dcache.LoadLockedReq_mshr_hits::.cpu1.data          534                       # number of LoadLockedReq MSHR hits
system.cpu1.dcache.LoadLockedReq_mshr_hits::total          534                       # number of LoadLockedReq MSHR hits
system.cpu1.dcache.LoadLockedReq_mshr_misses::.cpu1.data          379                       # number of LoadLockedReq MSHR misses
system.cpu1.dcache.LoadLockedReq_mshr_misses::total          379                       # number of LoadLockedReq MSHR misses
system.cpu1.dcache.LoadLockedReq_mshr_miss_latency::.cpu1.data      1555500                       # number of LoadLockedReq MSHR miss cycles
system.cpu1.dcache.LoadLockedReq_mshr_miss_latency::total      1555500                       # number of LoadLockedReq MSHR miss cycles
system.cpu1.dcache.LoadLockedReq_mshr_miss_rate::.cpu1.data     0.101772                       # mshr miss rate for LoadLockedReq accesses
system.cpu1.dcache.LoadLockedReq_mshr_miss_rate::total     0.101772                       # mshr miss rate for LoadLockedReq accesses
system.cpu1.dcache.LoadLockedReq_avg_mshr_miss_latency::.cpu1.data  4104.221636                       # average LoadLockedReq mshr miss latency
system.cpu1.dcache.LoadLockedReq_avg_mshr_miss_latency::total  4104.221636                       # average LoadLockedReq mshr miss latency
system.cpu1.dcache.StoreCondReq_hits::.cpu1.data         1441                       # number of StoreCondReq hits
system.cpu1.dcache.StoreCondReq_hits::total         1441                       # number of StoreCondReq hits
system.cpu1.dcache.StoreCondReq_misses::.cpu1.data         1256                       # number of StoreCondReq misses
system.cpu1.dcache.StoreCondReq_misses::total         1256                       # number of StoreCondReq misses
system.cpu1.dcache.StoreCondReq_miss_latency::.cpu1.data      6224500                       # number of StoreCondReq miss cycles
system.cpu1.dcache.StoreCondReq_miss_latency::total      6224500                       # number of StoreCondReq miss cycles
system.cpu1.dcache.StoreCondReq_accesses::.cpu1.data         2697                       # number of StoreCondReq accesses(hits+misses)
system.cpu1.dcache.StoreCondReq_accesses::total         2697                       # number of StoreCondReq accesses(hits+misses)
system.cpu1.dcache.StoreCondReq_miss_rate::.cpu1.data     0.465703                       # miss rate for StoreCondReq accesses
system.cpu1.dcache.StoreCondReq_miss_rate::total     0.465703                       # miss rate for StoreCondReq accesses
system.cpu1.dcache.StoreCondReq_avg_miss_latency::.cpu1.data  4955.812102                       # average StoreCondReq miss latency
system.cpu1.dcache.StoreCondReq_avg_miss_latency::total  4955.812102                       # average StoreCondReq miss latency
system.cpu1.dcache.StoreCondReq_mshr_misses::.cpu1.data         1240                       # number of StoreCondReq MSHR misses
system.cpu1.dcache.StoreCondReq_mshr_misses::total         1240                       # number of StoreCondReq MSHR misses
system.cpu1.dcache.StoreCondReq_mshr_miss_latency::.cpu1.data      5075500                       # number of StoreCondReq MSHR miss cycles
system.cpu1.dcache.StoreCondReq_mshr_miss_latency::total      5075500                       # number of StoreCondReq MSHR miss cycles
system.cpu1.dcache.StoreCondReq_mshr_miss_rate::.cpu1.data     0.459770                       # mshr miss rate for StoreCondReq accesses
system.cpu1.dcache.StoreCondReq_mshr_miss_rate::total     0.459770                       # mshr miss rate for StoreCondReq accesses
system.cpu1.dcache.StoreCondReq_avg_mshr_miss_latency::.cpu1.data  4093.145161                       # average StoreCondReq mshr miss latency
system.cpu1.dcache.StoreCondReq_avg_mshr_miss_latency::total  4093.145161                       # average StoreCondReq mshr miss latency
system.cpu1.dcache.StoreCondFailReq_miss_latency::.cpu1.data      1340000                       # number of StoreCondFailReq miss cycles
system.cpu1.dcache.StoreCondFailReq_miss_latency::total      1340000                       # number of StoreCondFailReq miss cycles
system.cpu1.dcache.StoreCondFailReq_avg_miss_latency::.cpu1.data          inf                       # average StoreCondFailReq miss latency
system.cpu1.dcache.StoreCondFailReq_avg_miss_latency::total          inf                       # average StoreCondFailReq miss latency
system.cpu1.dcache.StoreCondFailReq_mshr_miss_latency::.cpu1.data      1249000                       # number of StoreCondFailReq MSHR miss cycles
system.cpu1.dcache.StoreCondFailReq_mshr_miss_latency::total      1249000                       # number of StoreCondFailReq MSHR miss cycles
system.cpu1.dcache.StoreCondFailReq_avg_mshr_miss_latency::.cpu1.data          inf                       # average StoreCondFailReq mshr miss latency
system.cpu1.dcache.StoreCondFailReq_avg_mshr_miss_latency::total          inf                       # average StoreCondFailReq mshr miss latency
system.cpu1.dcache.SwapReq_hits::.cpu1.data         1065                       # number of SwapReq hits
system.cpu1.dcache.SwapReq_hits::total           1065                       # number of SwapReq hits
system.cpu1.dcache.SwapReq_misses::.cpu1.data         4431                       # number of SwapReq misses
system.cpu1.dcache.SwapReq_misses::total         4431                       # number of SwapReq misses
system.cpu1.dcache.SwapReq_miss_latency::.cpu1.data     42635500                       # number of SwapReq miss cycles
system.cpu1.dcache.SwapReq_miss_latency::total     42635500                       # number of SwapReq miss cycles
system.cpu1.dcache.SwapReq_accesses::.cpu1.data         5496                       # number of SwapReq accesses(hits+misses)
system.cpu1.dcache.SwapReq_accesses::total         5496                       # number of SwapReq accesses(hits+misses)
system.cpu1.dcache.SwapReq_miss_rate::.cpu1.data     0.806223                       # miss rate for SwapReq accesses
system.cpu1.dcache.SwapReq_miss_rate::total     0.806223                       # miss rate for SwapReq accesses
system.cpu1.dcache.SwapReq_avg_miss_latency::.cpu1.data  9622.094335                       # average SwapReq miss latency
system.cpu1.dcache.SwapReq_avg_miss_latency::total  9622.094335                       # average SwapReq miss latency
system.cpu1.dcache.SwapReq_mshr_hits::.cpu1.data            1                       # number of SwapReq MSHR hits
system.cpu1.dcache.SwapReq_mshr_hits::total            1                       # number of SwapReq MSHR hits
system.cpu1.dcache.SwapReq_mshr_misses::.cpu1.data         4430                       # number of SwapReq MSHR misses
system.cpu1.dcache.SwapReq_mshr_misses::total         4430                       # number of SwapReq MSHR misses
system.cpu1.dcache.SwapReq_mshr_miss_latency::.cpu1.data     38204500                       # number of SwapReq MSHR miss cycles
system.cpu1.dcache.SwapReq_mshr_miss_latency::total     38204500                       # number of SwapReq MSHR miss cycles
system.cpu1.dcache.SwapReq_mshr_miss_rate::.cpu1.data     0.806041                       # mshr miss rate for SwapReq accesses
system.cpu1.dcache.SwapReq_mshr_miss_rate::total     0.806041                       # mshr miss rate for SwapReq accesses
system.cpu1.dcache.SwapReq_avg_mshr_miss_latency::.cpu1.data  8624.040632                       # average SwapReq mshr miss latency
system.cpu1.dcache.SwapReq_avg_mshr_miss_latency::total  8624.040632                       # average SwapReq mshr miss latency
system.cpu1.dcache.tags.pwrStateResidencyTicks::UNDEFINED  29221007500                       # Cumulative time (in ticks) in various power states
system.cpu1.dcache.tags.tagsinuse           31.222034                       # Cycle average of tags in use
system.cpu1.dcache.tags.total_refs            4998632                       # Total number of references to valid blocks.
system.cpu1.dcache.tags.sampled_refs          2942232                       # Sample count of references to valid blocks.
system.cpu1.dcache.tags.avg_refs             1.698925                       # Average number of references to valid blocks.
system.cpu1.dcache.tags.warmup_cycle                0                       # Cycle when the warmup percentage was hit.
system.cpu1.dcache.tags.occ_blocks::.cpu1.data    31.222034                       # Average occupied blocks per requestor
system.cpu1.dcache.tags.occ_percent::.cpu1.data     0.975689                       # Average percentage of cache occupancy
system.cpu1.dcache.tags.occ_percent::total     0.975689                       # Average percentage of cache occupancy
system.cpu1.dcache.tags.occ_task_id_blocks::1024           27                       # Occupied blocks per task id
system.cpu1.dcache.tags.age_task_id_blocks_1024::1           27                       # Occupied blocks per task id
system.cpu1.dcache.tags.occ_task_id_percent::1024     0.843750                       # Percentage of cache occupancy per task id
system.cpu1.dcache.tags.tag_accesses         20263002                       # Number of tag accesses
system.cpu1.dcache.tags.data_accesses        20263002                       # Number of data accesses
system.cpu_clk_domain.clock                       500                       # Clock period in ticks
system.tol2bus.pwrStateResidencyTicks::UNDEFINED  29221007500                       # Cumulative time (in ticks) in various power states
system.tol2bus.trans_dist::ReadResp          11821035                       # Transaction distribution
system.tol2bus.trans_dist::ReadRespWithInvalidate            9                       # Transaction distribution
system.tol2bus.trans_dist::WritebackDirty      4058841                       # Transaction distribution
system.tol2bus.trans_dist::WritebackClean       120790                       # Transaction distribution
system.tol2bus.trans_dist::CleanEvict         8939926                       # Transaction distribution
system.tol2bus.trans_dist::UpgradeReq            9203                       # Transaction distribution
system.tol2bus.trans_dist::SCUpgradeReq          5030                       # Transaction distribution
system.tol2bus.trans_dist::UpgradeResp          14233                       # Transaction distribution
system.tol2bus.trans_dist::SCUpgradeFailReq          254                       # Transaction distribution
system.tol2bus.trans_dist::UpgradeFailResp          254                       # Transaction distribution
system.tol2bus.trans_dist::ReadExReq           115674                       # Transaction distribution
system.tol2bus.trans_dist::ReadExResp          115674                       # Transaction distribution
system.tol2bus.trans_dist::ReadCleanReq        120791                       # Transaction distribution
system.tol2bus.trans_dist::ReadSharedReq     11700254                       # Transaction distribution
system.tol2bus.pkt_count_system.cpu0.icache.mem_side::system.l2.cpu_side       220117                       # Packet count per connected master and slave (bytes)
system.tol2bus.pkt_count_system.cpu0.dcache.mem_side::system.l2.cpu_side      8535893                       # Packet count per connected master and slave (bytes)
system.tol2bus.pkt_count_system.cpu1.icache.mem_side::system.l2.cpu_side        48582                       # Packet count per connected master and slave (bytes)
system.tol2bus.pkt_count_system.cpu1.dcache.mem_side::system.l2.cpu_side      8401946                       # Packet count per connected master and slave (bytes)
system.tol2bus.pkt_count_system.cpu2.icache.mem_side::system.l2.cpu_side        47247                       # Packet count per connected master and slave (bytes)
system.tol2bus.pkt_count_system.cpu2.dcache.mem_side::system.l2.cpu_side      8465491                       # Packet count per connected master and slave (bytes)
system.tol2bus.pkt_count_system.cpu3.icache.mem_side::system.l2.cpu_side        46425                       # Packet count per connected master and slave (bytes)
system.tol2bus.pkt_count_system.cpu3.dcache.mem_side::system.l2.cpu_side      8349828                       # Packet count per connected master and slave (bytes)
system.tol2bus.pkt_count::total              34115529                       # Packet count per connected master and slave (bytes)
system.tol2bus.pkt_size_system.cpu0.icache.mem_side::system.l2.cpu_side      9391616                       # Cumulative packet size per connected master and slave (bytes)
system.tol2bus.pkt_size_system.cpu0.dcache.mem_side::system.l2.cpu_side    228505984                       # Cumulative packet size per connected master and slave (bytes)
system.tol2bus.pkt_size_system.cpu1.icache.mem_side::system.l2.cpu_side      2072832                       # Cumulative packet size per connected master and slave (bytes)
system.tol2bus.pkt_size_system.cpu1.dcache.mem_side::system.l2.cpu_side    224411968                       # Cumulative packet size per connected master and slave (bytes)
system.tol2bus.pkt_size_system.cpu2.icache.mem_side::system.l2.cpu_side      2015872                       # Cumulative packet size per connected master and slave (bytes)
system.tol2bus.pkt_size_system.cpu2.dcache.mem_side::system.l2.cpu_side    226259264                       # Cumulative packet size per connected master and slave (bytes)
system.tol2bus.pkt_size_system.cpu3.icache.mem_side::system.l2.cpu_side      1980800                       # Cumulative packet size per connected master and slave (bytes)
system.tol2bus.pkt_size_system.cpu3.dcache.mem_side::system.l2.cpu_side    222992064                       # Cumulative packet size per connected master and slave (bytes)
system.tol2bus.pkt_size::total              917630400                       # Cumulative packet size per connected master and slave (bytes)
system.tol2bus.snoops                         2906439                       # Total snoops (count)
system.tol2bus.snoopTraffic                 113832192                       # Total snoop traffic (bytes)
system.tol2bus.snoop_fanout::samples         13161105                       # Request fanout histogram
system.tol2bus.snoop_fanout::mean            0.374241                       # Request fanout histogram
system.tol2bus.snoop_fanout::stdev           0.633733                       # Request fanout histogram
system.tol2bus.snoop_fanout::underflows             0      0.00%      0.00% # Request fanout histogram
system.tol2bus.snoop_fanout::0                9212037     69.99%     69.99% # Request fanout histogram
system.tol2bus.snoop_fanout::1                3093271     23.50%     93.50% # Request fanout histogram
system.tol2bus.snoop_fanout::2                 740102      5.62%     99.12% # Request fanout histogram
system.tol2bus.snoop_fanout::3                 110825      0.84%     99.96% # Request fanout histogram
system.tol2bus.snoop_fanout::4                   4870      0.04%    100.00% # Request fanout histogram
system.tol2bus.snoop_fanout::5                      0      0.00%    100.00% # Request fanout histogram
system.tol2bus.snoop_fanout::6                      0      0.00%    100.00% # Request fanout histogram
system.tol2bus.snoop_fanout::7                      0      0.00%    100.00% # Request fanout histogram
system.tol2bus.snoop_fanout::8                      0      0.00%    100.00% # Request fanout histogram
system.tol2bus.snoop_fanout::overflows              0      0.00%    100.00% # Request fanout histogram
system.tol2bus.snoop_fanout::min_value              0                       # Request fanout histogram
system.tol2bus.snoop_fanout::max_value              4                       # Request fanout histogram
system.tol2bus.snoop_fanout::total           13161105                       # Request fanout histogram
system.tol2bus.reqLayer0.occupancy        16017613191                       # Layer occupancy (ticks)
system.tol2bus.reqLayer0.utilization             54.8                       # Layer utilization (%)
system.tol2bus.respLayer5.occupancy        4551182747                       # Layer occupancy (ticks)
system.tol2bus.respLayer5.utilization            15.6                       # Layer utilization (%)
system.tol2bus.respLayer4.occupancy          24368166                       # Layer occupancy (ticks)
system.tol2bus.respLayer4.utilization             0.1                       # Layer utilization (%)
system.tol2bus.respLayer7.occupancy        4489159341                       # Layer occupancy (ticks)
system.tol2bus.respLayer7.utilization            15.4                       # Layer utilization (%)
system.tol2bus.respLayer6.occupancy          23732260                       # Layer occupancy (ticks)
system.tol2bus.respLayer6.utilization             0.1                       # Layer utilization (%)
system.tol2bus.respLayer1.occupancy        4581216452                       # Layer occupancy (ticks)
system.tol2bus.respLayer1.utilization            15.7                       # Layer utilization (%)
system.tol2bus.respLayer0.occupancy         110357281                       # Layer occupancy (ticks)
system.tol2bus.respLayer0.utilization             0.4                       # Layer utilization (%)
system.tol2bus.respLayer3.occupancy        4517128657                       # Layer occupancy (ticks)
system.tol2bus.respLayer3.utilization            15.5                       # Layer utilization (%)
system.tol2bus.respLayer2.occupancy          25031121                       # Layer occupancy (ticks)
system.tol2bus.respLayer2.utilization             0.1                       # Layer utilization (%)

---------- End Simulation Statistics   ----------
