
---------- Begin Simulation Statistics ----------
final_tick                               1303049034000                       # Number of ticks from beginning of simulation (restored from checkpoints and never reset)
host_inst_rate                                 109466                       # Simulator instruction rate (inst/s)
host_mem_usage                                 702208                       # Number of bytes of host memory used
host_op_rate                                   109786                       # Simulator op (including micro ops) rate (op/s)
host_seconds                                 13123.68                       # Real time elapsed on the host
host_tick_rate                               99289945                       # Simulator tick rate (ticks/s)
sim_freq                                 1000000000000                       # Frequency of simulated ticks
sim_insts                                  1436597218                       # Number of instructions simulated
sim_ops                                    1440800975                       # Number of ops (including micro ops) simulated
sim_seconds                                  1.303049                       # Number of seconds simulated
sim_ticks                                1303049034000                       # Number of ticks simulated
system.cpu0.branchPred.BTBCorrect                   0                       # Number of correct BTB predictions (this stat may not work properly.
system.cpu0.branchPred.BTBHitPct            87.149212                       # BTB Hit Percentage
system.cpu0.branchPred.BTBHits              178532390                       # Number of BTB hits
system.cpu0.branchPred.BTBLookups           204858295                       # Number of BTB lookups
system.cpu0.branchPred.RASInCorrect                 0                       # Number of incorrect RAS predictions.
system.cpu0.branchPred.condIncorrect         13376756                       # Number of conditional branches incorrect
system.cpu0.branchPred.condPredicted        276442360                       # Number of conditional branches predicted
system.cpu0.branchPred.indirectHits          22922550                       # Number of indirect target hits.
system.cpu0.branchPred.indirectLookups       24313376                       # Number of indirect predictor lookups.
system.cpu0.branchPred.indirectMisses         1390826                       # Number of indirect misses.
system.cpu0.branchPred.lookups              350882727                       # Number of BP lookups
system.cpu0.branchPred.usedRAS                      0                       # Number of times the RAS was used to get a target.
system.cpu0.branchPredindirectMispredicted      2194262                       # Number of mispredicted indirect branches.
system.cpu0.commit.amos                       2100280                       # Number of atomic instructions committed
system.cpu0.commit.branchMispredicts          8754801                       # The number of times a branch was mispredicted
system.cpu0.commit.branches                 329545629                       # Number of branches committed
system.cpu0.commit.bw_lim_events             36270998                       # number cycles where commit BW limit reached
system.cpu0.commit.commitNonSpecStalls        6309745                       # The number of times commit has been forced to stall to communicate backwards
system.cpu0.commit.commitSquashedInsts       86804713                       # The number of squashed insts skipped by commit
system.cpu0.commit.committedInsts          1316549796                       # Number of instructions committed
system.cpu0.commit.committedOps            1318653368                       # Number of ops (including micro ops) committed
system.cpu0.commit.committed_per_cycle::samples   2403770816                       # Number of insts commited each cycle
system.cpu0.commit.committed_per_cycle::mean     0.548577                       # Number of insts commited each cycle
system.cpu0.commit.committed_per_cycle::stdev     1.306914                       # Number of insts commited each cycle
system.cpu0.commit.committed_per_cycle::underflows            0      0.00%      0.00% # Number of insts commited each cycle
system.cpu0.commit.committed_per_cycle::0   1766384151     73.48%     73.48% # Number of insts commited each cycle
system.cpu0.commit.committed_per_cycle::1    372382892     15.49%     88.98% # Number of insts commited each cycle
system.cpu0.commit.committed_per_cycle::2     98041186      4.08%     93.05% # Number of insts commited each cycle
system.cpu0.commit.committed_per_cycle::3     91519028      3.81%     96.86% # Number of insts commited each cycle
system.cpu0.commit.committed_per_cycle::4     23164300      0.96%     97.83% # Number of insts commited each cycle
system.cpu0.commit.committed_per_cycle::5      7379184      0.31%     98.13% # Number of insts commited each cycle
system.cpu0.commit.committed_per_cycle::6      4493623      0.19%     98.32% # Number of insts commited each cycle
system.cpu0.commit.committed_per_cycle::7      4135454      0.17%     98.49% # Number of insts commited each cycle
system.cpu0.commit.committed_per_cycle::8     36270998      1.51%    100.00% # Number of insts commited each cycle
system.cpu0.commit.committed_per_cycle::overflows            0      0.00%    100.00% # Number of insts commited each cycle
system.cpu0.commit.committed_per_cycle::min_value            0                       # Number of insts commited each cycle
system.cpu0.commit.committed_per_cycle::max_value            8                       # Number of insts commited each cycle
system.cpu0.commit.committed_per_cycle::total   2403770816                       # Number of insts commited each cycle
system.cpu0.commit.fp_insts                        50                       # Number of committed floating point instructions.
system.cpu0.commit.function_calls            25143379                       # Number of function calls committed.
system.cpu0.commit.int_insts               1273921554                       # Number of committed integer instructions.
system.cpu0.commit.loads                    405171117                       # Number of loads committed
system.cpu0.commit.membars                    4203729                       # Number of memory barriers committed
system.cpu0.commit.op_class_0::No_OpClass      4203735      0.32%      0.32% # Class of committed instruction
system.cpu0.commit.op_class_0::IntAlu       742062535     56.27%     56.59% # Class of committed instruction
system.cpu0.commit.op_class_0::IntMult       11831782      0.90%     57.49% # Class of committed instruction
system.cpu0.commit.op_class_0::IntDiv         2099835      0.16%     57.65% # Class of committed instruction
system.cpu0.commit.op_class_0::FloatAdd             0      0.00%     57.65% # Class of committed instruction
system.cpu0.commit.op_class_0::FloatCmp             4      0.00%     57.65% # Class of committed instruction
system.cpu0.commit.op_class_0::FloatCvt            12      0.00%     57.65% # Class of committed instruction
system.cpu0.commit.op_class_0::FloatMult            0      0.00%     57.65% # Class of committed instruction
system.cpu0.commit.op_class_0::FloatMultAcc            0      0.00%     57.65% # Class of committed instruction
system.cpu0.commit.op_class_0::FloatDiv             2      0.00%     57.65% # Class of committed instruction
system.cpu0.commit.op_class_0::FloatMisc            4      0.00%     57.65% # Class of committed instruction
system.cpu0.commit.op_class_0::FloatSqrt            0      0.00%     57.65% # Class of committed instruction
system.cpu0.commit.op_class_0::SimdAdd              0      0.00%     57.65% # Class of committed instruction
system.cpu0.commit.op_class_0::SimdAddAcc            0      0.00%     57.65% # Class of committed instruction
system.cpu0.commit.op_class_0::SimdAlu              0      0.00%     57.65% # Class of committed instruction
system.cpu0.commit.op_class_0::SimdCmp              0      0.00%     57.65% # Class of committed instruction
system.cpu0.commit.op_class_0::SimdCvt              0      0.00%     57.65% # Class of committed instruction
system.cpu0.commit.op_class_0::SimdMisc             0      0.00%     57.65% # Class of committed instruction
system.cpu0.commit.op_class_0::SimdMult             0      0.00%     57.65% # Class of committed instruction
system.cpu0.commit.op_class_0::SimdMultAcc            0      0.00%     57.65% # Class of committed instruction
system.cpu0.commit.op_class_0::SimdShift            0      0.00%     57.65% # Class of committed instruction
system.cpu0.commit.op_class_0::SimdShiftAcc            0      0.00%     57.65% # Class of committed instruction
system.cpu0.commit.op_class_0::SimdDiv              0      0.00%     57.65% # Class of committed instruction
system.cpu0.commit.op_class_0::SimdSqrt             0      0.00%     57.65% # Class of committed instruction
system.cpu0.commit.op_class_0::SimdFloatAdd            0      0.00%     57.65% # Class of committed instruction
system.cpu0.commit.op_class_0::SimdFloatAlu            0      0.00%     57.65% # Class of committed instruction
system.cpu0.commit.op_class_0::SimdFloatCmp            0      0.00%     57.65% # Class of committed instruction
system.cpu0.commit.op_class_0::SimdFloatCvt            0      0.00%     57.65% # Class of committed instruction
system.cpu0.commit.op_class_0::SimdFloatDiv            0      0.00%     57.65% # Class of committed instruction
system.cpu0.commit.op_class_0::SimdFloatMisc            0      0.00%     57.65% # Class of committed instruction
system.cpu0.commit.op_class_0::SimdFloatMult            0      0.00%     57.65% # Class of committed instruction
system.cpu0.commit.op_class_0::SimdFloatMultAcc            0      0.00%     57.65% # Class of committed instruction
system.cpu0.commit.op_class_0::SimdFloatSqrt            0      0.00%     57.65% # Class of committed instruction
system.cpu0.commit.op_class_0::SimdReduceAdd            0      0.00%     57.65% # Class of committed instruction
system.cpu0.commit.op_class_0::SimdReduceAlu            0      0.00%     57.65% # Class of committed instruction
system.cpu0.commit.op_class_0::SimdReduceCmp            0      0.00%     57.65% # Class of committed instruction
system.cpu0.commit.op_class_0::SimdFloatReduceAdd            0      0.00%     57.65% # Class of committed instruction
system.cpu0.commit.op_class_0::SimdFloatReduceCmp            0      0.00%     57.65% # Class of committed instruction
system.cpu0.commit.op_class_0::SimdAes              0      0.00%     57.65% # Class of committed instruction
system.cpu0.commit.op_class_0::SimdAesMix            0      0.00%     57.65% # Class of committed instruction
system.cpu0.commit.op_class_0::SimdSha1Hash            0      0.00%     57.65% # Class of committed instruction
system.cpu0.commit.op_class_0::SimdSha1Hash2            0      0.00%     57.65% # Class of committed instruction
system.cpu0.commit.op_class_0::SimdSha256Hash            0      0.00%     57.65% # Class of committed instruction
system.cpu0.commit.op_class_0::SimdSha256Hash2            0      0.00%     57.65% # Class of committed instruction
system.cpu0.commit.op_class_0::SimdShaSigma2            0      0.00%     57.65% # Class of committed instruction
system.cpu0.commit.op_class_0::SimdShaSigma3            0      0.00%     57.65% # Class of committed instruction
system.cpu0.commit.op_class_0::SimdPredAlu            0      0.00%     57.65% # Class of committed instruction
system.cpu0.commit.op_class_0::MemRead      407271389     30.89%     88.53% # Class of committed instruction
system.cpu0.commit.op_class_0::MemWrite     151184042     11.47%    100.00% # Class of committed instruction
system.cpu0.commit.op_class_0::FloatMemRead            8      0.00%    100.00% # Class of committed instruction
system.cpu0.commit.op_class_0::FloatMemWrite           20      0.00%    100.00% # Class of committed instruction
system.cpu0.commit.op_class_0::IprAccess            0      0.00%    100.00% # Class of committed instruction
system.cpu0.commit.op_class_0::InstPrefetch            0      0.00%    100.00% # Class of committed instruction
system.cpu0.commit.op_class_0::total       1318653368                       # Class of committed instruction
system.cpu0.commit.refs                     558455459                       # Number of memory references committed
system.cpu0.commit.swp_count                        0                       # Number of s/w prefetches committed
system.cpu0.commit.vec_insts                        0                       # Number of committed Vector instructions.
system.cpu0.committedInsts                 1316549796                       # Number of Instructions Simulated
system.cpu0.committedOps                   1318653368                       # Number of Ops (including micro ops) Simulated
system.cpu0.cpi                              1.973402                       # CPI: Cycles Per Instruction
system.cpu0.cpi_total                        1.973402                       # CPI: Total CPI of All Threads
system.cpu0.decode.BlockedCycles            461657376                       # Number of cycles decode is blocked
system.cpu0.decode.BranchMispred              4679301                       # Number of times decode detected a branch misprediction
system.cpu0.decode.BranchResolved           177527882                       # Number of times decode resolved a branch
system.cpu0.decode.DecodedInsts            1425510749                       # Number of instructions handled by decode
system.cpu0.decode.IdleCycles               970007021                       # Number of cycles decode is idle
system.cpu0.decode.RunCycles                973330246                       # Number of cycles decode is running
system.cpu0.decode.SquashCycles               8769164                       # Number of cycles decode is squashing
system.cpu0.decode.SquashedInsts             12564288                       # Number of squashed instructions handled by decode
system.cpu0.decode.UnblockCycles              6629675                       # Number of cycles decode is unblocking
system.cpu0.dtb.accesses                            0                       # DTB accesses
system.cpu0.dtb.hits                                0                       # DTB hits
system.cpu0.dtb.misses                              0                       # DTB misses
system.cpu0.dtb.read_accesses                       0                       # DTB read accesses
system.cpu0.dtb.read_hits                           0                       # DTB read hits
system.cpu0.dtb.read_misses                         0                       # DTB read misses
system.cpu0.dtb.write_accesses                      0                       # DTB write accesses
system.cpu0.dtb.write_hits                          0                       # DTB write hits
system.cpu0.dtb.write_misses                        0                       # DTB write misses
system.cpu0.fetch.Branches                  350882727                       # Number of branches that fetch encountered
system.cpu0.fetch.CacheLines                255097600                       # Number of cache lines fetched
system.cpu0.fetch.Cycles                   1456130294                       # Number of cycles fetch has run and was not squashing or blocked
system.cpu0.fetch.IcacheSquashes              3402044                       # Number of outstanding Icache misses that were squashed
system.cpu0.fetch.IcacheWaitRetryStallCycles          135                       # Number of stall cycles due to full MSHR
system.cpu0.fetch.Insts                    1447352461                       # Number of instructions fetch has processed
system.cpu0.fetch.MiscStallCycles                  40                       # Number of cycles fetch has spent waiting on interrupts, or bad addresses, or out of MSHRs
system.cpu0.fetch.PendingTrapStallCycles          171                       # Number of stall cycles due to pending traps
system.cpu0.fetch.SquashCycles               26782292                       # Number of cycles fetch has spent squashing
system.cpu0.fetch.branchRate                 0.135055                       # Number of branch fetches per cycle
system.cpu0.fetch.icacheStallCycles         950871696                       # Number of cycles fetch is stalled on an Icache miss
system.cpu0.fetch.predictedBranches         201454940                       # Number of branches that fetch has predicted taken
system.cpu0.fetch.rate                       0.557085                       # Number of inst fetches per cycle
system.cpu0.fetch.rateDist::samples        2420393482                       # Number of instructions fetched each cycle (Total)
system.cpu0.fetch.rateDist::mean             0.598852                       # Number of instructions fetched each cycle (Total)
system.cpu0.fetch.rateDist::stdev            0.887091                       # Number of instructions fetched each cycle (Total)
system.cpu0.fetch.rateDist::underflows              0      0.00%      0.00% # Number of instructions fetched each cycle (Total)
system.cpu0.fetch.rateDist::0              1400477920     57.86%     57.86% # Number of instructions fetched each cycle (Total)
system.cpu0.fetch.rateDist::1               756689132     31.26%     89.12% # Number of instructions fetched each cycle (Total)
system.cpu0.fetch.rateDist::2               133989166      5.54%     94.66% # Number of instructions fetched each cycle (Total)
system.cpu0.fetch.rateDist::3               108106504      4.47%     99.13% # Number of instructions fetched each cycle (Total)
system.cpu0.fetch.rateDist::4                13707521      0.57%     99.69% # Number of instructions fetched each cycle (Total)
system.cpu0.fetch.rateDist::5                 3111148      0.13%     99.82% # Number of instructions fetched each cycle (Total)
system.cpu0.fetch.rateDist::6                  104898      0.00%     99.83% # Number of instructions fetched each cycle (Total)
system.cpu0.fetch.rateDist::7                 4203322      0.17%    100.00% # Number of instructions fetched each cycle (Total)
system.cpu0.fetch.rateDist::8                    3871      0.00%    100.00% # Number of instructions fetched each cycle (Total)
system.cpu0.fetch.rateDist::overflows               0      0.00%    100.00% # Number of instructions fetched each cycle (Total)
system.cpu0.fetch.rateDist::min_value               0                       # Number of instructions fetched each cycle (Total)
system.cpu0.fetch.rateDist::max_value               8                       # Number of instructions fetched each cycle (Total)
system.cpu0.fetch.rateDist::total          2420393482                       # Number of instructions fetched each cycle (Total)
system.cpu0.fp_regfile_reads                       44                       # number of floating regfile reads
system.cpu0.fp_regfile_writes                      22                       # number of floating regfile writes
system.cpu0.idleCycles                      177688964                       # Total number of cycles that the CPU has spent unscheduled due to idling
system.cpu0.iew.branchMispredicts             8879926                       # Number of branch mispredicts detected at execute
system.cpu0.iew.exec_branches               338482983                       # Number of branches executed
system.cpu0.iew.exec_nop                            0                       # number of nop insts executed
system.cpu0.iew.exec_rate                    0.534248                       # Inst execution rate
system.cpu0.iew.exec_refs                   597051307                       # number of memory reference insts executed
system.cpu0.iew.exec_stores                 162996344                       # Number of stores executed
system.cpu0.iew.exec_swp                            0                       # number of swp insts executed
system.cpu0.iew.iewBlockCycles              369017315                       # Number of cycles IEW is blocking
system.cpu0.iew.iewDispLoadInsts            434751082                       # Number of dispatched load instructions
system.cpu0.iew.iewDispNonSpecInsts           2106227                       # Number of dispatched non-speculative instructions
system.cpu0.iew.iewDispSquashedInsts          2217884                       # Number of squashed instructions skipped by dispatch
system.cpu0.iew.iewDispStoreInsts           166367525                       # Number of dispatched store instructions
system.cpu0.iew.iewDispatchedInsts         1405397685                       # Number of instructions dispatched to IQ
system.cpu0.iew.iewExecLoadInsts            434054963                       # Number of load instructions executed
system.cpu0.iew.iewExecSquashedInsts          9651328                       # Number of squashed instructions skipped in execute
system.cpu0.iew.iewExecutedInsts           1388019618                       # Number of executed instructions
system.cpu0.iew.iewIQFullEvents               1592157                       # Number of times the IQ has become full, causing a stall
system.cpu0.iew.iewIdleCycles                       0                       # Number of cycles IEW is idle
system.cpu0.iew.iewLSQFullEvents             10875807                       # Number of times the LSQ has become full, causing a stall
system.cpu0.iew.iewSquashCycles               8769164                       # Number of cycles IEW is squashing
system.cpu0.iew.iewUnblockCycles             14945006                       # Number of cycles IEW is unblocking
system.cpu0.iew.lsq.thread0.blockedLoads            0                       # Number of blocked loads due to partial load-store forwarding
system.cpu0.iew.lsq.thread0.cacheBlocked       191790                       # Number of times an access to memory failed due to the cache being blocked
system.cpu0.iew.lsq.thread0.forwLoads        22223506                       # Number of loads that had data forwarded from stores
system.cpu0.iew.lsq.thread0.ignoredResponses        32965                       # Number of memory responses ignored because the instruction is squashed
system.cpu0.iew.lsq.thread0.invAddrLoads            0                       # Number of loads ignored due to an invalid address
system.cpu0.iew.lsq.thread0.invAddrSwpfs            0                       # Number of software prefetches ignored due to an invalid address
system.cpu0.iew.lsq.thread0.memOrderViolation        13785                       # Number of memory ordering violations
system.cpu0.iew.lsq.thread0.rescheduledLoads      5147270                       # Number of loads that were rescheduled
system.cpu0.iew.lsq.thread0.squashedLoads     29579965                       # Number of loads squashed
system.cpu0.iew.lsq.thread0.squashedStores     13083183                       # Number of stores squashed
system.cpu0.iew.memOrderViolationEvents         13785                       # Number of memory order violations
system.cpu0.iew.predictedNotTakenIncorrect       767360                       # Number of branches that were predicted not taken incorrectly
system.cpu0.iew.predictedTakenIncorrect       8112566                       # Number of branches that were predicted taken incorrectly
system.cpu0.iew.wb_consumers                587996634                       # num instructions consuming a value
system.cpu0.iew.wb_count                   1376491554                       # cumulative count of insts written-back
system.cpu0.iew.wb_fanout                    0.897617                       # average fanout of values written-back
system.cpu0.iew.wb_producers                527795551                       # num instructions producing a value
system.cpu0.iew.wb_rate                      0.529811                       # insts written-back per cycle
system.cpu0.iew.wb_sent                    1376632597                       # cumulative count of insts sent to commit
system.cpu0.int_regfile_reads              1704690458                       # number of integer regfile reads
system.cpu0.int_regfile_writes              885710060                       # number of integer regfile writes
system.cpu0.ipc                              0.506739                       # IPC: Instructions Per Cycle
system.cpu0.ipc_total                        0.506739                       # IPC: Total IPC of All Threads
system.cpu0.iq.FU_type_0::No_OpClass          4205630      0.30%      0.30% # Type of FU issued
system.cpu0.iq.FU_type_0::IntAlu            778337597     55.69%     55.99% # Type of FU issued
system.cpu0.iq.FU_type_0::IntMult            11834211      0.85%     56.84% # Type of FU issued
system.cpu0.iq.FU_type_0::IntDiv              2100449      0.15%     56.99% # Type of FU issued
system.cpu0.iq.FU_type_0::FloatAdd                  0      0.00%     56.99% # Type of FU issued
system.cpu0.iq.FU_type_0::FloatCmp                  4      0.00%     56.99% # Type of FU issued
system.cpu0.iq.FU_type_0::FloatCvt                 12      0.00%     56.99% # Type of FU issued
system.cpu0.iq.FU_type_0::FloatMult                 0      0.00%     56.99% # Type of FU issued
system.cpu0.iq.FU_type_0::FloatMultAcc              0      0.00%     56.99% # Type of FU issued
system.cpu0.iq.FU_type_0::FloatDiv                  2      0.00%     56.99% # Type of FU issued
system.cpu0.iq.FU_type_0::FloatMisc                 4      0.00%     56.99% # Type of FU issued
system.cpu0.iq.FU_type_0::FloatSqrt                 0      0.00%     56.99% # Type of FU issued
system.cpu0.iq.FU_type_0::SimdAdd                   0      0.00%     56.99% # Type of FU issued
system.cpu0.iq.FU_type_0::SimdAddAcc                0      0.00%     56.99% # Type of FU issued
system.cpu0.iq.FU_type_0::SimdAlu                   0      0.00%     56.99% # Type of FU issued
system.cpu0.iq.FU_type_0::SimdCmp                   0      0.00%     56.99% # Type of FU issued
system.cpu0.iq.FU_type_0::SimdCvt                   0      0.00%     56.99% # Type of FU issued
system.cpu0.iq.FU_type_0::SimdMisc                  0      0.00%     56.99% # Type of FU issued
system.cpu0.iq.FU_type_0::SimdMult                  0      0.00%     56.99% # Type of FU issued
system.cpu0.iq.FU_type_0::SimdMultAcc               0      0.00%     56.99% # Type of FU issued
system.cpu0.iq.FU_type_0::SimdShift                 0      0.00%     56.99% # Type of FU issued
system.cpu0.iq.FU_type_0::SimdShiftAcc              0      0.00%     56.99% # Type of FU issued
system.cpu0.iq.FU_type_0::SimdDiv                   0      0.00%     56.99% # Type of FU issued
system.cpu0.iq.FU_type_0::SimdSqrt                  0      0.00%     56.99% # Type of FU issued
system.cpu0.iq.FU_type_0::SimdFloatAdd              0      0.00%     56.99% # Type of FU issued
system.cpu0.iq.FU_type_0::SimdFloatAlu              0      0.00%     56.99% # Type of FU issued
system.cpu0.iq.FU_type_0::SimdFloatCmp              0      0.00%     56.99% # Type of FU issued
system.cpu0.iq.FU_type_0::SimdFloatCvt              0      0.00%     56.99% # Type of FU issued
system.cpu0.iq.FU_type_0::SimdFloatDiv              0      0.00%     56.99% # Type of FU issued
system.cpu0.iq.FU_type_0::SimdFloatMisc             0      0.00%     56.99% # Type of FU issued
system.cpu0.iq.FU_type_0::SimdFloatMult             0      0.00%     56.99% # Type of FU issued
system.cpu0.iq.FU_type_0::SimdFloatMultAcc            0      0.00%     56.99% # Type of FU issued
system.cpu0.iq.FU_type_0::SimdFloatSqrt             0      0.00%     56.99% # Type of FU issued
system.cpu0.iq.FU_type_0::SimdReduceAdd             0      0.00%     56.99% # Type of FU issued
system.cpu0.iq.FU_type_0::SimdReduceAlu             0      0.00%     56.99% # Type of FU issued
system.cpu0.iq.FU_type_0::SimdReduceCmp             0      0.00%     56.99% # Type of FU issued
system.cpu0.iq.FU_type_0::SimdFloatReduceAdd            0      0.00%     56.99% # Type of FU issued
system.cpu0.iq.FU_type_0::SimdFloatReduceCmp            0      0.00%     56.99% # Type of FU issued
system.cpu0.iq.FU_type_0::SimdAes                   0      0.00%     56.99% # Type of FU issued
system.cpu0.iq.FU_type_0::SimdAesMix                0      0.00%     56.99% # Type of FU issued
system.cpu0.iq.FU_type_0::SimdSha1Hash              0      0.00%     56.99% # Type of FU issued
system.cpu0.iq.FU_type_0::SimdSha1Hash2             0      0.00%     56.99% # Type of FU issued
system.cpu0.iq.FU_type_0::SimdSha256Hash            0      0.00%     56.99% # Type of FU issued
system.cpu0.iq.FU_type_0::SimdSha256Hash2            0      0.00%     56.99% # Type of FU issued
system.cpu0.iq.FU_type_0::SimdShaSigma2             0      0.00%     56.99% # Type of FU issued
system.cpu0.iq.FU_type_0::SimdShaSigma3             0      0.00%     56.99% # Type of FU issued
system.cpu0.iq.FU_type_0::SimdPredAlu               0      0.00%     56.99% # Type of FU issued
system.cpu0.iq.FU_type_0::MemRead           438679247     31.39%     88.37% # Type of FU issued
system.cpu0.iq.FU_type_0::MemWrite          162513763     11.63%    100.00% # Type of FU issued
system.cpu0.iq.FU_type_0::FloatMemRead              8      0.00%    100.00% # Type of FU issued
system.cpu0.iq.FU_type_0::FloatMemWrite            20      0.00%    100.00% # Type of FU issued
system.cpu0.iq.FU_type_0::IprAccess                 0      0.00%    100.00% # Type of FU issued
system.cpu0.iq.FU_type_0::InstPrefetch              0      0.00%    100.00% # Type of FU issued
system.cpu0.iq.FU_type_0::total            1397670947                       # Type of FU issued
system.cpu0.iq.fp_alu_accesses                     52                       # Number of floating point alu accesses
system.cpu0.iq.fp_inst_queue_reads                102                       # Number of floating instruction queue reads
system.cpu0.iq.fp_inst_queue_wakeup_accesses           50                       # Number of floating instruction queue wakeup accesses
system.cpu0.iq.fp_inst_queue_writes                50                       # Number of floating instruction queue writes
system.cpu0.iq.fu_busy_cnt                    3368165                       # FU busy when requested
system.cpu0.iq.fu_busy_rate                  0.002410                       # FU busy rate (busy events/executed inst)
system.cpu0.iq.fu_full::No_OpClass                  0      0.00%      0.00% # attempts to use FU when none available
system.cpu0.iq.fu_full::IntAlu                 665708     19.76%     19.76% # attempts to use FU when none available
system.cpu0.iq.fu_full::IntMult                     0      0.00%     19.76% # attempts to use FU when none available
system.cpu0.iq.fu_full::IntDiv                      0      0.00%     19.76% # attempts to use FU when none available
system.cpu0.iq.fu_full::FloatAdd                    0      0.00%     19.76% # attempts to use FU when none available
system.cpu0.iq.fu_full::FloatCmp                    0      0.00%     19.76% # attempts to use FU when none available
system.cpu0.iq.fu_full::FloatCvt                    0      0.00%     19.76% # attempts to use FU when none available
system.cpu0.iq.fu_full::FloatMult                   0      0.00%     19.76% # attempts to use FU when none available
system.cpu0.iq.fu_full::FloatMultAcc                0      0.00%     19.76% # attempts to use FU when none available
system.cpu0.iq.fu_full::FloatDiv                    0      0.00%     19.76% # attempts to use FU when none available
system.cpu0.iq.fu_full::FloatMisc                   0      0.00%     19.76% # attempts to use FU when none available
system.cpu0.iq.fu_full::FloatSqrt                   0      0.00%     19.76% # attempts to use FU when none available
system.cpu0.iq.fu_full::SimdAdd                     0      0.00%     19.76% # attempts to use FU when none available
system.cpu0.iq.fu_full::SimdAddAcc                  0      0.00%     19.76% # attempts to use FU when none available
system.cpu0.iq.fu_full::SimdAlu                     0      0.00%     19.76% # attempts to use FU when none available
system.cpu0.iq.fu_full::SimdCmp                     0      0.00%     19.76% # attempts to use FU when none available
system.cpu0.iq.fu_full::SimdCvt                     0      0.00%     19.76% # attempts to use FU when none available
system.cpu0.iq.fu_full::SimdMisc                    0      0.00%     19.76% # attempts to use FU when none available
system.cpu0.iq.fu_full::SimdMult                    0      0.00%     19.76% # attempts to use FU when none available
system.cpu0.iq.fu_full::SimdMultAcc                 0      0.00%     19.76% # attempts to use FU when none available
system.cpu0.iq.fu_full::SimdShift                   0      0.00%     19.76% # attempts to use FU when none available
system.cpu0.iq.fu_full::SimdShiftAcc                0      0.00%     19.76% # attempts to use FU when none available
system.cpu0.iq.fu_full::SimdDiv                     0      0.00%     19.76% # attempts to use FU when none available
system.cpu0.iq.fu_full::SimdSqrt                    0      0.00%     19.76% # attempts to use FU when none available
system.cpu0.iq.fu_full::SimdFloatAdd                0      0.00%     19.76% # attempts to use FU when none available
system.cpu0.iq.fu_full::SimdFloatAlu                0      0.00%     19.76% # attempts to use FU when none available
system.cpu0.iq.fu_full::SimdFloatCmp                0      0.00%     19.76% # attempts to use FU when none available
system.cpu0.iq.fu_full::SimdFloatCvt                0      0.00%     19.76% # attempts to use FU when none available
system.cpu0.iq.fu_full::SimdFloatDiv                0      0.00%     19.76% # attempts to use FU when none available
system.cpu0.iq.fu_full::SimdFloatMisc               0      0.00%     19.76% # attempts to use FU when none available
system.cpu0.iq.fu_full::SimdFloatMult               0      0.00%     19.76% # attempts to use FU when none available
system.cpu0.iq.fu_full::SimdFloatMultAcc            0      0.00%     19.76% # attempts to use FU when none available
system.cpu0.iq.fu_full::SimdFloatSqrt               0      0.00%     19.76% # attempts to use FU when none available
system.cpu0.iq.fu_full::SimdReduceAdd               0      0.00%     19.76% # attempts to use FU when none available
system.cpu0.iq.fu_full::SimdReduceAlu               0      0.00%     19.76% # attempts to use FU when none available
system.cpu0.iq.fu_full::SimdReduceCmp               0      0.00%     19.76% # attempts to use FU when none available
system.cpu0.iq.fu_full::SimdFloatReduceAdd            0      0.00%     19.76% # attempts to use FU when none available
system.cpu0.iq.fu_full::SimdFloatReduceCmp            0      0.00%     19.76% # attempts to use FU when none available
system.cpu0.iq.fu_full::SimdAes                     0      0.00%     19.76% # attempts to use FU when none available
system.cpu0.iq.fu_full::SimdAesMix                  0      0.00%     19.76% # attempts to use FU when none available
system.cpu0.iq.fu_full::SimdSha1Hash                0      0.00%     19.76% # attempts to use FU when none available
system.cpu0.iq.fu_full::SimdSha1Hash2               0      0.00%     19.76% # attempts to use FU when none available
system.cpu0.iq.fu_full::SimdSha256Hash              0      0.00%     19.76% # attempts to use FU when none available
system.cpu0.iq.fu_full::SimdSha256Hash2             0      0.00%     19.76% # attempts to use FU when none available
system.cpu0.iq.fu_full::SimdShaSigma2               0      0.00%     19.76% # attempts to use FU when none available
system.cpu0.iq.fu_full::SimdShaSigma3               0      0.00%     19.76% # attempts to use FU when none available
system.cpu0.iq.fu_full::SimdPredAlu                 0      0.00%     19.76% # attempts to use FU when none available
system.cpu0.iq.fu_full::MemRead               2253676     66.91%     86.68% # attempts to use FU when none available
system.cpu0.iq.fu_full::MemWrite               448779     13.32%    100.00% # attempts to use FU when none available
system.cpu0.iq.fu_full::FloatMemRead                0      0.00%    100.00% # attempts to use FU when none available
system.cpu0.iq.fu_full::FloatMemWrite               2      0.00%    100.00% # attempts to use FU when none available
system.cpu0.iq.fu_full::IprAccess                   0      0.00%    100.00% # attempts to use FU when none available
system.cpu0.iq.fu_full::InstPrefetch                0      0.00%    100.00% # attempts to use FU when none available
system.cpu0.iq.int_alu_accesses            1396833430                       # Number of integer alu accesses
system.cpu0.iq.int_inst_queue_reads        5219358495                       # Number of integer instruction queue reads
system.cpu0.iq.int_inst_queue_wakeup_accesses   1376491504                       # Number of integer instruction queue wakeup accesses
system.cpu0.iq.int_inst_queue_writes       1492154929                       # Number of integer instruction queue writes
system.cpu0.iq.iqInstsAdded                1399087534                       # Number of instructions added to the IQ (excludes non-spec)
system.cpu0.iq.iqInstsIssued               1397670947                       # Number of instructions issued
system.cpu0.iq.iqNonSpecInstsAdded            6310151                       # Number of non-speculative instructions added to the IQ
system.cpu0.iq.iqSquashedInstsExamined       86744313                       # Number of squashed instructions iterated over during squash; mainly for profiling
system.cpu0.iq.iqSquashedInstsIssued           255057                       # Number of squashed instructions issued
system.cpu0.iq.iqSquashedNonSpecRemoved           406                       # Number of squashed non-spec instructions that were removed
system.cpu0.iq.iqSquashedOperandsExamined     30647179                       # Number of squashed operands that are examined and possibly removed from graph
system.cpu0.iq.issued_per_cycle::samples   2420393482                       # Number of insts issued each cycle
system.cpu0.iq.issued_per_cycle::mean        0.577456                       # Number of insts issued each cycle
system.cpu0.iq.issued_per_cycle::stdev       0.814563                       # Number of insts issued each cycle
system.cpu0.iq.issued_per_cycle::underflows            0      0.00%      0.00% # Number of insts issued each cycle
system.cpu0.iq.issued_per_cycle::0         1404370167     58.02%     58.02% # Number of insts issued each cycle
system.cpu0.iq.issued_per_cycle::1          721827384     29.82%     87.85% # Number of insts issued each cycle
system.cpu0.iq.issued_per_cycle::2          231490097      9.56%     97.41% # Number of insts issued each cycle
system.cpu0.iq.issued_per_cycle::3           46344876      1.91%     99.32% # Number of insts issued each cycle
system.cpu0.iq.issued_per_cycle::4           11884073      0.49%     99.82% # Number of insts issued each cycle
system.cpu0.iq.issued_per_cycle::5            1806522      0.07%     99.89% # Number of insts issued each cycle
system.cpu0.iq.issued_per_cycle::6            1748682      0.07%     99.96% # Number of insts issued each cycle
system.cpu0.iq.issued_per_cycle::7             605701      0.03%     99.99% # Number of insts issued each cycle
system.cpu0.iq.issued_per_cycle::8             315980      0.01%    100.00% # Number of insts issued each cycle
system.cpu0.iq.issued_per_cycle::overflows            0      0.00%    100.00% # Number of insts issued each cycle
system.cpu0.iq.issued_per_cycle::min_value            0                       # Number of insts issued each cycle
system.cpu0.iq.issued_per_cycle::max_value            8                       # Number of insts issued each cycle
system.cpu0.iq.issued_per_cycle::total     2420393482                       # Number of insts issued each cycle
system.cpu0.iq.rate                          0.537963                       # Inst issue rate
system.cpu0.iq.vec_alu_accesses                     0                       # Number of vector alu accesses
system.cpu0.iq.vec_inst_queue_reads                 0                       # Number of vector instruction queue reads
system.cpu0.iq.vec_inst_queue_wakeup_accesses            0                       # Number of vector instruction queue wakeup accesses
system.cpu0.iq.vec_inst_queue_writes                0                       # Number of vector instruction queue writes
system.cpu0.itb.accesses                            0                       # DTB accesses
system.cpu0.itb.hits                                0                       # DTB hits
system.cpu0.itb.misses                              0                       # DTB misses
system.cpu0.itb.read_accesses                       0                       # DTB read accesses
system.cpu0.itb.read_hits                           0                       # DTB read hits
system.cpu0.itb.read_misses                         0                       # DTB read misses
system.cpu0.itb.write_accesses                      0                       # DTB write accesses
system.cpu0.itb.write_hits                          0                       # DTB write hits
system.cpu0.itb.write_misses                        0                       # DTB write misses
system.cpu0.memDep0.conflictingLoads         19279689                       # Number of conflicting loads.
system.cpu0.memDep0.conflictingStores         2522861                       # Number of conflicting stores.
system.cpu0.memDep0.insertedLoads           434751082                       # Number of loads inserted to the mem dependence unit.
system.cpu0.memDep0.insertedStores          166367525                       # Number of stores inserted to the mem dependence unit.
system.cpu0.misc_regfile_reads                   1896                       # number of misc regfile reads
system.cpu0.misc_regfile_writes                    22                       # number of misc regfile writes
system.cpu0.numCycles                      2598082446                       # number of cpu cycles simulated
system.cpu0.numWorkItemsCompleted                   0                       # number of work items this cpu completed
system.cpu0.numWorkItemsStarted                     0                       # number of work items this cpu started
system.cpu0.quiesceCycles                     8019305                       # Total number of cycles that CPU has spent quiesced or waiting for an interrupt
system.cpu0.rename.BlockCycles              399341832                       # Number of cycles rename is blocking
system.cpu0.rename.CommittedMaps            845196949                       # Number of HB maps that are committed
system.cpu0.rename.IQFullEvents              14827142                       # Number of times rename has blocked due to IQ full
system.cpu0.rename.IdleCycles               981829846                       # Number of cycles rename is idle
system.cpu0.rename.LQFullEvents              19787929                       # Number of times rename has blocked due to LQ full
system.cpu0.rename.ROBFullEvents                19014                       # Number of times rename has blocked due to ROB full
system.cpu0.rename.RenameLookups           1740157470                       # Number of register rename lookups that rename has made
system.cpu0.rename.RenamedInsts            1415084484                       # Number of instructions processed by rename
system.cpu0.rename.RenamedOperands          915002260                       # Number of destination operands rename has renamed
system.cpu0.rename.RunCycles                966449160                       # Number of cycles rename is running
system.cpu0.rename.SQFullEvents              28172879                       # Number of times rename has blocked due to SQ full
system.cpu0.rename.SquashCycles               8769164                       # Number of cycles rename is squashing
system.cpu0.rename.UnblockCycles             63849209                       # Number of cycles rename is unblocking
system.cpu0.rename.UndoneMaps                69805306                       # Number of HB maps that are undone due to squashing
system.cpu0.rename.fp_rename_lookups               44                       # Number of floating rename lookups
system.cpu0.rename.int_rename_lookups      1740157426                       # Number of integer rename lookups
system.cpu0.rename.serializeStallCycles        154271                       # count of cycles rename stalled for serializing inst
system.cpu0.rename.serializingInsts              5869                       # count of serializing insts renamed
system.cpu0.rename.skidInsts                 33198289                       # count of insts added to the skid buffer
system.cpu0.rename.tempSerializingInsts          5821                       # count of temporary serializing insts renamed
system.cpu0.rob.rob_reads                  3772933732                       # The number of ROB reads
system.cpu0.rob.rob_writes                 2827577998                       # The number of ROB writes
system.cpu0.timesIdled                       31086708                       # Number of times that the entire CPU went into an idle state and unscheduled itself
system.cpu0.workload.numSyscalls                 1863                       # Number of system calls
system.cpu1.branchPred.BTBCorrect                   0                       # Number of correct BTB predictions (this stat may not work properly.
system.cpu1.branchPred.BTBHitPct            90.018600                       # BTB Hit Percentage
system.cpu1.branchPred.BTBHits               20930465                       # Number of BTB hits
system.cpu1.branchPred.BTBLookups            23251267                       # Number of BTB lookups
system.cpu1.branchPred.RASInCorrect                 0                       # Number of incorrect RAS predictions.
system.cpu1.branchPred.condIncorrect          2811937                       # Number of conditional branches incorrect
system.cpu1.branchPred.condPredicted         30964880                       # Number of conditional branches predicted
system.cpu1.branchPred.indirectHits           1075126                       # Number of indirect target hits.
system.cpu1.branchPred.indirectLookups        1095884                       # Number of indirect predictor lookups.
system.cpu1.branchPred.indirectMisses           20758                       # Number of indirect misses.
system.cpu1.branchPred.lookups               35667464                       # Number of BP lookups
system.cpu1.branchPred.usedRAS                      0                       # Number of times the RAS was used to get a target.
system.cpu1.branchPredindirectMispredicted        48488                       # Number of mispredicted indirect branches.
system.cpu1.commit.amos                       2100000                       # Number of atomic instructions committed
system.cpu1.commit.branchMispredicts          1999118                       # The number of times a branch was mispredicted
system.cpu1.commit.branches                  28115795                       # Number of branches committed
system.cpu1.commit.bw_lim_events              4189040                       # number cycles where commit BW limit reached
system.cpu1.commit.commitNonSpecStalls        6300691                       # The number of times commit has been forced to stall to communicate backwards
system.cpu1.commit.commitSquashedInsts       18160203                       # The number of squashed insts skipped by commit
system.cpu1.commit.committedInsts           120047422                       # Number of instructions committed
system.cpu1.commit.committedOps             122147607                       # Number of ops (including micro ops) committed
system.cpu1.commit.committed_per_cycle::samples    473282686                       # Number of insts commited each cycle
system.cpu1.commit.committed_per_cycle::mean     0.258086                       # Number of insts commited each cycle
system.cpu1.commit.committed_per_cycle::stdev     1.026436                       # Number of insts commited each cycle
system.cpu1.commit.committed_per_cycle::underflows            0      0.00%      0.00% # Number of insts commited each cycle
system.cpu1.commit.committed_per_cycle::0    423983621     89.58%     89.58% # Number of insts commited each cycle
system.cpu1.commit.committed_per_cycle::1     24387365      5.15%     94.74% # Number of insts commited each cycle
system.cpu1.commit.committed_per_cycle::2      8867080      1.87%     96.61% # Number of insts commited each cycle
system.cpu1.commit.committed_per_cycle::3      7040130      1.49%     98.10% # Number of insts commited each cycle
system.cpu1.commit.committed_per_cycle::4      1585223      0.33%     98.43% # Number of insts commited each cycle
system.cpu1.commit.committed_per_cycle::5       734689      0.16%     98.59% # Number of insts commited each cycle
system.cpu1.commit.committed_per_cycle::6      2089731      0.44%     99.03% # Number of insts commited each cycle
system.cpu1.commit.committed_per_cycle::7       405807      0.09%     99.11% # Number of insts commited each cycle
system.cpu1.commit.committed_per_cycle::8      4189040      0.89%    100.00% # Number of insts commited each cycle
system.cpu1.commit.committed_per_cycle::overflows            0      0.00%    100.00% # Number of insts commited each cycle
system.cpu1.commit.committed_per_cycle::min_value            0                       # Number of insts commited each cycle
system.cpu1.commit.committed_per_cycle::max_value            8                       # Number of insts commited each cycle
system.cpu1.commit.committed_per_cycle::total    473282686                       # Number of insts commited each cycle
system.cpu1.commit.fp_insts                        12                       # Number of committed floating point instructions.
system.cpu1.commit.function_calls             1797505                       # Number of function calls committed.
system.cpu1.commit.int_insts                116585025                       # Number of committed integer instructions.
system.cpu1.commit.loads                     30173058                       # Number of loads committed
system.cpu1.commit.membars                    4200131                       # Number of memory barriers committed
system.cpu1.commit.op_class_0::No_OpClass      4200131      3.44%      3.44% # Class of committed instruction
system.cpu1.commit.op_class_0::IntAlu        76655719     62.76%     66.20% # Class of committed instruction
system.cpu1.commit.op_class_0::IntMult             44      0.00%     66.20% # Class of committed instruction
system.cpu1.commit.op_class_0::IntDiv              88      0.00%     66.20% # Class of committed instruction
system.cpu1.commit.op_class_0::FloatAdd             0      0.00%     66.20% # Class of committed instruction
system.cpu1.commit.op_class_0::FloatCmp             0      0.00%     66.20% # Class of committed instruction
system.cpu1.commit.op_class_0::FloatCvt             0      0.00%     66.20% # Class of committed instruction
system.cpu1.commit.op_class_0::FloatMult            0      0.00%     66.20% # Class of committed instruction
system.cpu1.commit.op_class_0::FloatMultAcc            0      0.00%     66.20% # Class of committed instruction
system.cpu1.commit.op_class_0::FloatDiv             0      0.00%     66.20% # Class of committed instruction
system.cpu1.commit.op_class_0::FloatMisc            0      0.00%     66.20% # Class of committed instruction
system.cpu1.commit.op_class_0::FloatSqrt            0      0.00%     66.20% # Class of committed instruction
system.cpu1.commit.op_class_0::SimdAdd              0      0.00%     66.20% # Class of committed instruction
system.cpu1.commit.op_class_0::SimdAddAcc            0      0.00%     66.20% # Class of committed instruction
system.cpu1.commit.op_class_0::SimdAlu              0      0.00%     66.20% # Class of committed instruction
system.cpu1.commit.op_class_0::SimdCmp              0      0.00%     66.20% # Class of committed instruction
system.cpu1.commit.op_class_0::SimdCvt              0      0.00%     66.20% # Class of committed instruction
system.cpu1.commit.op_class_0::SimdMisc             0      0.00%     66.20% # Class of committed instruction
system.cpu1.commit.op_class_0::SimdMult             0      0.00%     66.20% # Class of committed instruction
system.cpu1.commit.op_class_0::SimdMultAcc            0      0.00%     66.20% # Class of committed instruction
system.cpu1.commit.op_class_0::SimdShift            0      0.00%     66.20% # Class of committed instruction
system.cpu1.commit.op_class_0::SimdShiftAcc            0      0.00%     66.20% # Class of committed instruction
system.cpu1.commit.op_class_0::SimdDiv              0      0.00%     66.20% # Class of committed instruction
system.cpu1.commit.op_class_0::SimdSqrt             0      0.00%     66.20% # Class of committed instruction
system.cpu1.commit.op_class_0::SimdFloatAdd            0      0.00%     66.20% # Class of committed instruction
system.cpu1.commit.op_class_0::SimdFloatAlu            0      0.00%     66.20% # Class of committed instruction
system.cpu1.commit.op_class_0::SimdFloatCmp            0      0.00%     66.20% # Class of committed instruction
system.cpu1.commit.op_class_0::SimdFloatCvt            0      0.00%     66.20% # Class of committed instruction
system.cpu1.commit.op_class_0::SimdFloatDiv            0      0.00%     66.20% # Class of committed instruction
system.cpu1.commit.op_class_0::SimdFloatMisc            0      0.00%     66.20% # Class of committed instruction
system.cpu1.commit.op_class_0::SimdFloatMult            0      0.00%     66.20% # Class of committed instruction
system.cpu1.commit.op_class_0::SimdFloatMultAcc            0      0.00%     66.20% # Class of committed instruction
system.cpu1.commit.op_class_0::SimdFloatSqrt            0      0.00%     66.20% # Class of committed instruction
system.cpu1.commit.op_class_0::SimdReduceAdd            0      0.00%     66.20% # Class of committed instruction
system.cpu1.commit.op_class_0::SimdReduceAlu            0      0.00%     66.20% # Class of committed instruction
system.cpu1.commit.op_class_0::SimdReduceCmp            0      0.00%     66.20% # Class of committed instruction
system.cpu1.commit.op_class_0::SimdFloatReduceAdd            0      0.00%     66.20% # Class of committed instruction
system.cpu1.commit.op_class_0::SimdFloatReduceCmp            0      0.00%     66.20% # Class of committed instruction
system.cpu1.commit.op_class_0::SimdAes              0      0.00%     66.20% # Class of committed instruction
system.cpu1.commit.op_class_0::SimdAesMix            0      0.00%     66.20% # Class of committed instruction
system.cpu1.commit.op_class_0::SimdSha1Hash            0      0.00%     66.20% # Class of committed instruction
system.cpu1.commit.op_class_0::SimdSha1Hash2            0      0.00%     66.20% # Class of committed instruction
system.cpu1.commit.op_class_0::SimdSha256Hash            0      0.00%     66.20% # Class of committed instruction
system.cpu1.commit.op_class_0::SimdSha256Hash2            0      0.00%     66.20% # Class of committed instruction
system.cpu1.commit.op_class_0::SimdShaSigma2            0      0.00%     66.20% # Class of committed instruction
system.cpu1.commit.op_class_0::SimdShaSigma3            0      0.00%     66.20% # Class of committed instruction
system.cpu1.commit.op_class_0::SimdPredAlu            0      0.00%     66.20% # Class of committed instruction
system.cpu1.commit.op_class_0::MemRead       32273058     26.42%     92.62% # Class of committed instruction
system.cpu1.commit.op_class_0::MemWrite       9018555      7.38%    100.00% # Class of committed instruction
system.cpu1.commit.op_class_0::FloatMemRead            0      0.00%    100.00% # Class of committed instruction
system.cpu1.commit.op_class_0::FloatMemWrite           12      0.00%    100.00% # Class of committed instruction
system.cpu1.commit.op_class_0::IprAccess            0      0.00%    100.00% # Class of committed instruction
system.cpu1.commit.op_class_0::InstPrefetch            0      0.00%    100.00% # Class of committed instruction
system.cpu1.commit.op_class_0::total        122147607                       # Class of committed instruction
system.cpu1.commit.refs                      41291625                       # Number of memory references committed
system.cpu1.commit.swp_count                        0                       # Number of s/w prefetches committed
system.cpu1.commit.vec_insts                        0                       # Number of committed Vector instructions.
system.cpu1.committedInsts                  120047422                       # Number of Instructions Simulated
system.cpu1.committedOps                    122147607                       # Number of Ops (including micro ops) Simulated
system.cpu1.cpi                              3.975935                       # CPI: Cycles Per Instruction
system.cpu1.cpi_total                        3.975935                       # CPI: Total CPI of All Threads
system.cpu1.decode.BlockedCycles            377216147                       # Number of cycles decode is blocked
system.cpu1.decode.BranchMispred               864109                       # Number of times decode detected a branch misprediction
system.cpu1.decode.BranchResolved            20025115                       # Number of times decode resolved a branch
system.cpu1.decode.DecodedInsts             146969004                       # Number of instructions handled by decode
system.cpu1.decode.IdleCycles                26963016                       # Number of cycles decode is idle
system.cpu1.decode.RunCycles                 65426917                       # Number of cycles decode is running
system.cpu1.decode.SquashCycles               2000916                       # Number of cycles decode is squashing
system.cpu1.decode.SquashedInsts              2067712                       # Number of squashed instructions handled by decode
system.cpu1.decode.UnblockCycles              5304889                       # Number of cycles decode is unblocking
system.cpu1.dtb.accesses                            0                       # DTB accesses
system.cpu1.dtb.hits                                0                       # DTB hits
system.cpu1.dtb.misses                              0                       # DTB misses
system.cpu1.dtb.read_accesses                       0                       # DTB read accesses
system.cpu1.dtb.read_hits                           0                       # DTB read hits
system.cpu1.dtb.read_misses                         0                       # DTB read misses
system.cpu1.dtb.write_accesses                      0                       # DTB write accesses
system.cpu1.dtb.write_hits                          0                       # DTB write hits
system.cpu1.dtb.write_misses                        0                       # DTB write misses
system.cpu1.fetch.Branches                   35667464                       # Number of branches that fetch encountered
system.cpu1.fetch.CacheLines                 23548391                       # Number of cache lines fetched
system.cpu1.fetch.Cycles                    448656934                       # Number of cycles fetch has run and was not squashing or blocked
system.cpu1.fetch.IcacheSquashes               195110                       # Number of outstanding Icache misses that were squashed
system.cpu1.fetch.IcacheWaitRetryStallCycles           11                       # Number of stall cycles due to full MSHR
system.cpu1.fetch.Insts                     151991126                       # Number of instructions fetch has processed
system.cpu1.fetch.MiscStallCycles                   2                       # Number of cycles fetch has spent waiting on interrupts, or bad addresses, or out of MSHRs
system.cpu1.fetch.SquashCycles                5627470                       # Number of cycles fetch has spent squashing
system.cpu1.fetch.branchRate                 0.074727                       # Number of branch fetches per cycle
system.cpu1.fetch.icacheStallCycles          25441203                       # Number of cycles fetch is stalled on an Icache miss
system.cpu1.fetch.predictedBranches          22005591                       # Number of branches that fetch has predicted taken
system.cpu1.fetch.rate                       0.318439                       # Number of inst fetches per cycle
system.cpu1.fetch.rateDist::samples         476911885                       # Number of instructions fetched each cycle (Total)
system.cpu1.fetch.rateDist::mean             0.323103                       # Number of instructions fetched each cycle (Total)
system.cpu1.fetch.rateDist::stdev            0.754227                       # Number of instructions fetched each cycle (Total)
system.cpu1.fetch.rateDist::underflows              0      0.00%      0.00% # Number of instructions fetched each cycle (Total)
system.cpu1.fetch.rateDist::0               379395334     79.55%     79.55% # Number of instructions fetched each cycle (Total)
system.cpu1.fetch.rateDist::1                61914221     12.98%     92.53% # Number of instructions fetched each cycle (Total)
system.cpu1.fetch.rateDist::2                19365867      4.06%     96.60% # Number of instructions fetched each cycle (Total)
system.cpu1.fetch.rateDist::3                12645432      2.65%     99.25% # Number of instructions fetched each cycle (Total)
system.cpu1.fetch.rateDist::4                 2510929      0.53%     99.77% # Number of instructions fetched each cycle (Total)
system.cpu1.fetch.rateDist::5                 1015946      0.21%     99.99% # Number of instructions fetched each cycle (Total)
system.cpu1.fetch.rateDist::6                   63300      0.01%    100.00% # Number of instructions fetched each cycle (Total)
system.cpu1.fetch.rateDist::7                     712      0.00%    100.00% # Number of instructions fetched each cycle (Total)
system.cpu1.fetch.rateDist::8                     144      0.00%    100.00% # Number of instructions fetched each cycle (Total)
system.cpu1.fetch.rateDist::overflows               0      0.00%    100.00% # Number of instructions fetched each cycle (Total)
system.cpu1.fetch.rateDist::min_value               0                       # Number of instructions fetched each cycle (Total)
system.cpu1.fetch.rateDist::max_value               8                       # Number of instructions fetched each cycle (Total)
system.cpu1.fetch.rateDist::total           476911885                       # Number of instructions fetched each cycle (Total)
system.cpu1.fp_regfile_reads                       12                       # number of floating regfile reads
system.cpu1.idleCycles                         388836                       # Total number of cycles that the CPU has spent unscheduled due to idling
system.cpu1.iew.branchMispredicts             2120156                       # Number of branch mispredicts detected at execute
system.cpu1.iew.exec_branches                30790632                       # Number of branches executed
system.cpu1.iew.exec_nop                            0                       # number of nop insts executed
system.cpu1.iew.exec_rate                    0.282196                       # Inst execution rate
system.cpu1.iew.exec_refs                    45953924                       # number of memory reference insts executed
system.cpu1.iew.exec_stores                  11515840                       # Number of stores executed
system.cpu1.iew.exec_swp                            0                       # number of swp insts executed
system.cpu1.iew.iewBlockCycles              313034981                       # Number of cycles IEW is blocking
system.cpu1.iew.iewDispLoadInsts             35196648                       # Number of dispatched load instructions
system.cpu1.iew.iewDispNonSpecInsts           2100630                       # Number of dispatched non-speculative instructions
system.cpu1.iew.iewDispSquashedInsts          1708106                       # Number of squashed instructions skipped by dispatch
system.cpu1.iew.iewDispStoreInsts            11900739                       # Number of dispatched store instructions
system.cpu1.iew.iewDispatchedInsts          140259463                       # Number of instructions dispatched to IQ
system.cpu1.iew.iewExecLoadInsts             34438084                       # Number of load instructions executed
system.cpu1.iew.iewExecSquashedInsts          1979336                       # Number of squashed instructions skipped in execute
system.cpu1.iew.iewExecutedInsts            134692397                       # Number of executed instructions
system.cpu1.iew.iewIQFullEvents               1945716                       # Number of times the IQ has become full, causing a stall
system.cpu1.iew.iewIdleCycles                       0                       # Number of cycles IEW is idle
system.cpu1.iew.iewLSQFullEvents              6571871                       # Number of times the LSQ has become full, causing a stall
system.cpu1.iew.iewSquashCycles               2000916                       # Number of cycles IEW is squashing
system.cpu1.iew.iewUnblockCycles             10821621                       # Number of cycles IEW is unblocking
system.cpu1.iew.lsq.thread0.blockedLoads            0                       # Number of blocked loads due to partial load-store forwarding
system.cpu1.iew.lsq.thread0.cacheBlocked       103804                       # Number of times an access to memory failed due to the cache being blocked
system.cpu1.iew.lsq.thread0.forwLoads         1063128                       # Number of loads that had data forwarded from stores
system.cpu1.iew.lsq.thread0.ignoredResponses        29075                       # Number of memory responses ignored because the instruction is squashed
system.cpu1.iew.lsq.thread0.invAddrLoads            0                       # Number of loads ignored due to an invalid address
system.cpu1.iew.lsq.thread0.invAddrSwpfs            0                       # Number of software prefetches ignored due to an invalid address
system.cpu1.iew.lsq.thread0.memOrderViolation         2368                       # Number of memory ordering violations
system.cpu1.iew.lsq.thread0.rescheduledLoads        14688                       # Number of loads that were rescheduled
system.cpu1.iew.lsq.thread0.squashedLoads      5023590                       # Number of loads squashed
system.cpu1.iew.lsq.thread0.squashedStores       782172                       # Number of stores squashed
system.cpu1.iew.memOrderViolationEvents          2368                       # Number of memory order violations
system.cpu1.iew.predictedNotTakenIncorrect       542824                       # Number of branches that were predicted not taken incorrectly
system.cpu1.iew.predictedTakenIncorrect       1577332                       # Number of branches that were predicted taken incorrectly
system.cpu1.iew.wb_consumers                 77849749                       # num instructions consuming a value
system.cpu1.iew.wb_count                    133171460                       # cumulative count of insts written-back
system.cpu1.iew.wb_fanout                    0.838134                       # average fanout of values written-back
system.cpu1.iew.wb_producers                 65248526                       # num instructions producing a value
system.cpu1.iew.wb_rate                      0.279010                       # insts written-back per cycle
system.cpu1.iew.wb_sent                     133242326                       # cumulative count of insts sent to commit
system.cpu1.int_regfile_reads               170728909                       # number of integer regfile reads
system.cpu1.int_regfile_writes               89862318                       # number of integer regfile writes
system.cpu1.ipc                              0.251513                       # IPC: Instructions Per Cycle
system.cpu1.ipc_total                        0.251513                       # IPC: Total IPC of All Threads
system.cpu1.iq.FU_type_0::No_OpClass          4200234      3.07%      3.07% # Type of FU issued
system.cpu1.iq.FU_type_0::IntAlu             85942767     62.88%     65.96% # Type of FU issued
system.cpu1.iq.FU_type_0::IntMult                  47      0.00%     65.96% # Type of FU issued
system.cpu1.iq.FU_type_0::IntDiv                   88      0.00%     65.96% # Type of FU issued
system.cpu1.iq.FU_type_0::FloatAdd                  0      0.00%     65.96% # Type of FU issued
system.cpu1.iq.FU_type_0::FloatCmp                  0      0.00%     65.96% # Type of FU issued
system.cpu1.iq.FU_type_0::FloatCvt                  0      0.00%     65.96% # Type of FU issued
system.cpu1.iq.FU_type_0::FloatMult                 0      0.00%     65.96% # Type of FU issued
system.cpu1.iq.FU_type_0::FloatMultAcc              0      0.00%     65.96% # Type of FU issued
system.cpu1.iq.FU_type_0::FloatDiv                  0      0.00%     65.96% # Type of FU issued
system.cpu1.iq.FU_type_0::FloatMisc                 0      0.00%     65.96% # Type of FU issued
system.cpu1.iq.FU_type_0::FloatSqrt                 0      0.00%     65.96% # Type of FU issued
system.cpu1.iq.FU_type_0::SimdAdd                   0      0.00%     65.96% # Type of FU issued
system.cpu1.iq.FU_type_0::SimdAddAcc                0      0.00%     65.96% # Type of FU issued
system.cpu1.iq.FU_type_0::SimdAlu                   0      0.00%     65.96% # Type of FU issued
system.cpu1.iq.FU_type_0::SimdCmp                   0      0.00%     65.96% # Type of FU issued
system.cpu1.iq.FU_type_0::SimdCvt                   0      0.00%     65.96% # Type of FU issued
system.cpu1.iq.FU_type_0::SimdMisc                  0      0.00%     65.96% # Type of FU issued
system.cpu1.iq.FU_type_0::SimdMult                  0      0.00%     65.96% # Type of FU issued
system.cpu1.iq.FU_type_0::SimdMultAcc               0      0.00%     65.96% # Type of FU issued
system.cpu1.iq.FU_type_0::SimdShift                 0      0.00%     65.96% # Type of FU issued
system.cpu1.iq.FU_type_0::SimdShiftAcc              0      0.00%     65.96% # Type of FU issued
system.cpu1.iq.FU_type_0::SimdDiv                   0      0.00%     65.96% # Type of FU issued
system.cpu1.iq.FU_type_0::SimdSqrt                  0      0.00%     65.96% # Type of FU issued
system.cpu1.iq.FU_type_0::SimdFloatAdd              0      0.00%     65.96% # Type of FU issued
system.cpu1.iq.FU_type_0::SimdFloatAlu              0      0.00%     65.96% # Type of FU issued
system.cpu1.iq.FU_type_0::SimdFloatCmp              0      0.00%     65.96% # Type of FU issued
system.cpu1.iq.FU_type_0::SimdFloatCvt              0      0.00%     65.96% # Type of FU issued
system.cpu1.iq.FU_type_0::SimdFloatDiv              0      0.00%     65.96% # Type of FU issued
system.cpu1.iq.FU_type_0::SimdFloatMisc             0      0.00%     65.96% # Type of FU issued
system.cpu1.iq.FU_type_0::SimdFloatMult             0      0.00%     65.96% # Type of FU issued
system.cpu1.iq.FU_type_0::SimdFloatMultAcc            0      0.00%     65.96% # Type of FU issued
system.cpu1.iq.FU_type_0::SimdFloatSqrt             0      0.00%     65.96% # Type of FU issued
system.cpu1.iq.FU_type_0::SimdReduceAdd             0      0.00%     65.96% # Type of FU issued
system.cpu1.iq.FU_type_0::SimdReduceAlu             0      0.00%     65.96% # Type of FU issued
system.cpu1.iq.FU_type_0::SimdReduceCmp             0      0.00%     65.96% # Type of FU issued
system.cpu1.iq.FU_type_0::SimdFloatReduceAdd            0      0.00%     65.96% # Type of FU issued
system.cpu1.iq.FU_type_0::SimdFloatReduceCmp            0      0.00%     65.96% # Type of FU issued
system.cpu1.iq.FU_type_0::SimdAes                   0      0.00%     65.96% # Type of FU issued
system.cpu1.iq.FU_type_0::SimdAesMix                0      0.00%     65.96% # Type of FU issued
system.cpu1.iq.FU_type_0::SimdSha1Hash              0      0.00%     65.96% # Type of FU issued
system.cpu1.iq.FU_type_0::SimdSha1Hash2             0      0.00%     65.96% # Type of FU issued
system.cpu1.iq.FU_type_0::SimdSha256Hash            0      0.00%     65.96% # Type of FU issued
system.cpu1.iq.FU_type_0::SimdSha256Hash2            0      0.00%     65.96% # Type of FU issued
system.cpu1.iq.FU_type_0::SimdShaSigma2             0      0.00%     65.96% # Type of FU issued
system.cpu1.iq.FU_type_0::SimdShaSigma3             0      0.00%     65.96% # Type of FU issued
system.cpu1.iq.FU_type_0::SimdPredAlu               0      0.00%     65.96% # Type of FU issued
system.cpu1.iq.FU_type_0::MemRead            37047794     27.11%     93.06% # Type of FU issued
system.cpu1.iq.FU_type_0::MemWrite            9480791      6.94%    100.00% # Type of FU issued
system.cpu1.iq.FU_type_0::FloatMemRead              0      0.00%    100.00% # Type of FU issued
system.cpu1.iq.FU_type_0::FloatMemWrite            12      0.00%    100.00% # Type of FU issued
system.cpu1.iq.FU_type_0::IprAccess                 0      0.00%    100.00% # Type of FU issued
system.cpu1.iq.FU_type_0::InstPrefetch              0      0.00%    100.00% # Type of FU issued
system.cpu1.iq.FU_type_0::total             136671733                       # Type of FU issued
system.cpu1.iq.fp_alu_accesses                     14                       # Number of floating point alu accesses
system.cpu1.iq.fp_inst_queue_reads                 26                       # Number of floating instruction queue reads
system.cpu1.iq.fp_inst_queue_wakeup_accesses           12                       # Number of floating instruction queue wakeup accesses
system.cpu1.iq.fp_inst_queue_writes                12                       # Number of floating instruction queue writes
system.cpu1.iq.fu_busy_cnt                    2932130                       # FU busy when requested
system.cpu1.iq.fu_busy_rate                  0.021454                       # FU busy rate (busy events/executed inst)
system.cpu1.iq.fu_full::No_OpClass                  0      0.00%      0.00% # attempts to use FU when none available
system.cpu1.iq.fu_full::IntAlu                 700382     23.89%     23.89% # attempts to use FU when none available
system.cpu1.iq.fu_full::IntMult                     0      0.00%     23.89% # attempts to use FU when none available
system.cpu1.iq.fu_full::IntDiv                      0      0.00%     23.89% # attempts to use FU when none available
system.cpu1.iq.fu_full::FloatAdd                    0      0.00%     23.89% # attempts to use FU when none available
system.cpu1.iq.fu_full::FloatCmp                    0      0.00%     23.89% # attempts to use FU when none available
system.cpu1.iq.fu_full::FloatCvt                    0      0.00%     23.89% # attempts to use FU when none available
system.cpu1.iq.fu_full::FloatMult                   0      0.00%     23.89% # attempts to use FU when none available
system.cpu1.iq.fu_full::FloatMultAcc                0      0.00%     23.89% # attempts to use FU when none available
system.cpu1.iq.fu_full::FloatDiv                    0      0.00%     23.89% # attempts to use FU when none available
system.cpu1.iq.fu_full::FloatMisc                   0      0.00%     23.89% # attempts to use FU when none available
system.cpu1.iq.fu_full::FloatSqrt                   0      0.00%     23.89% # attempts to use FU when none available
system.cpu1.iq.fu_full::SimdAdd                     0      0.00%     23.89% # attempts to use FU when none available
system.cpu1.iq.fu_full::SimdAddAcc                  0      0.00%     23.89% # attempts to use FU when none available
system.cpu1.iq.fu_full::SimdAlu                     0      0.00%     23.89% # attempts to use FU when none available
system.cpu1.iq.fu_full::SimdCmp                     0      0.00%     23.89% # attempts to use FU when none available
system.cpu1.iq.fu_full::SimdCvt                     0      0.00%     23.89% # attempts to use FU when none available
system.cpu1.iq.fu_full::SimdMisc                    0      0.00%     23.89% # attempts to use FU when none available
system.cpu1.iq.fu_full::SimdMult                    0      0.00%     23.89% # attempts to use FU when none available
system.cpu1.iq.fu_full::SimdMultAcc                 0      0.00%     23.89% # attempts to use FU when none available
system.cpu1.iq.fu_full::SimdShift                   0      0.00%     23.89% # attempts to use FU when none available
system.cpu1.iq.fu_full::SimdShiftAcc                0      0.00%     23.89% # attempts to use FU when none available
system.cpu1.iq.fu_full::SimdDiv                     0      0.00%     23.89% # attempts to use FU when none available
system.cpu1.iq.fu_full::SimdSqrt                    0      0.00%     23.89% # attempts to use FU when none available
system.cpu1.iq.fu_full::SimdFloatAdd                0      0.00%     23.89% # attempts to use FU when none available
system.cpu1.iq.fu_full::SimdFloatAlu                0      0.00%     23.89% # attempts to use FU when none available
system.cpu1.iq.fu_full::SimdFloatCmp                0      0.00%     23.89% # attempts to use FU when none available
system.cpu1.iq.fu_full::SimdFloatCvt                0      0.00%     23.89% # attempts to use FU when none available
system.cpu1.iq.fu_full::SimdFloatDiv                0      0.00%     23.89% # attempts to use FU when none available
system.cpu1.iq.fu_full::SimdFloatMisc               0      0.00%     23.89% # attempts to use FU when none available
system.cpu1.iq.fu_full::SimdFloatMult               0      0.00%     23.89% # attempts to use FU when none available
system.cpu1.iq.fu_full::SimdFloatMultAcc            0      0.00%     23.89% # attempts to use FU when none available
system.cpu1.iq.fu_full::SimdFloatSqrt               0      0.00%     23.89% # attempts to use FU when none available
system.cpu1.iq.fu_full::SimdReduceAdd               0      0.00%     23.89% # attempts to use FU when none available
system.cpu1.iq.fu_full::SimdReduceAlu               0      0.00%     23.89% # attempts to use FU when none available
system.cpu1.iq.fu_full::SimdReduceCmp               0      0.00%     23.89% # attempts to use FU when none available
system.cpu1.iq.fu_full::SimdFloatReduceAdd            0      0.00%     23.89% # attempts to use FU when none available
system.cpu1.iq.fu_full::SimdFloatReduceCmp            0      0.00%     23.89% # attempts to use FU when none available
system.cpu1.iq.fu_full::SimdAes                     0      0.00%     23.89% # attempts to use FU when none available
system.cpu1.iq.fu_full::SimdAesMix                  0      0.00%     23.89% # attempts to use FU when none available
system.cpu1.iq.fu_full::SimdSha1Hash                0      0.00%     23.89% # attempts to use FU when none available
system.cpu1.iq.fu_full::SimdSha1Hash2               0      0.00%     23.89% # attempts to use FU when none available
system.cpu1.iq.fu_full::SimdSha256Hash              0      0.00%     23.89% # attempts to use FU when none available
system.cpu1.iq.fu_full::SimdSha256Hash2             0      0.00%     23.89% # attempts to use FU when none available
system.cpu1.iq.fu_full::SimdShaSigma2               0      0.00%     23.89% # attempts to use FU when none available
system.cpu1.iq.fu_full::SimdShaSigma3               0      0.00%     23.89% # attempts to use FU when none available
system.cpu1.iq.fu_full::SimdPredAlu                 0      0.00%     23.89% # attempts to use FU when none available
system.cpu1.iq.fu_full::MemRead               1813686     61.86%     85.74% # attempts to use FU when none available
[...]
system.cpu1.dcache.WriteReq_hits::.cpu1.data      3604864                       # number of WriteReq hits
system.cpu1.dcache.WriteReq_hits::total       3604864                       # number of WriteReq hits
system.cpu1.dcache.WriteReq_misses::.cpu1.data      2307313                       # number of WriteReq misses
system.cpu1.dcache.WriteReq_misses::total      2307313                       # number of WriteReq misses
system.cpu1.dcache.WriteReq_miss_latency::.cpu1.data 159705812515                       # number of WriteReq miss cycles
system.cpu1.dcache.WriteReq_miss_latency::total 159705812515                       # number of WriteReq miss cycles
system.cpu1.dcache.WriteReq_accesses::.cpu1.data      5912177                       # number of WriteReq accesses(hits+misses)
system.cpu1.dcache.WriteReq_accesses::total      5912177                       # number of WriteReq accesses(hits+misses)
system.cpu1.dcache.WriteReq_miss_rate::.cpu1.data     0.390265                       # miss rate for WriteReq accesses
system.cpu1.dcache.WriteReq_miss_rate::total     0.390265                       # miss rate for WriteReq accesses
system.cpu1.dcache.WriteReq_avg_miss_latency::.cpu1.data 69217.229095                       # average WriteReq miss latency
system.cpu1.dcache.WriteReq_avg_miss_latency::total 69217.229095                       # average WriteReq miss latency
system.cpu1.dcache.WriteReq_mshr_hits::.cpu1.data      2083336                       # number of WriteReq MSHR hits
system.cpu1.dcache.WriteReq_mshr_hits::total      2083336                       # number of WriteReq MSHR hits
system.cpu1.dcache.WriteReq_mshr_misses::.cpu1.data       223977                       # number of WriteReq MSHR misses
system.cpu1.dcache.WriteReq_mshr_misses::total       223977                       # number of WriteReq MSHR misses
system.cpu1.dcache.WriteReq_mshr_miss_latency::.cpu1.data  14816949182                       # number of WriteReq MSHR miss cycles
system.cpu1.dcache.WriteReq_mshr_miss_latency::total  14816949182                       # number of WriteReq MSHR miss cycles
system.cpu1.dcache.WriteReq_mshr_miss_rate::.cpu1.data     0.037884                       # mshr miss rate for WriteReq accesses
system.cpu1.dcache.WriteReq_mshr_miss_rate::total     0.037884                       # mshr miss rate for WriteReq accesses
system.cpu1.dcache.WriteReq_avg_mshr_miss_latency::.cpu1.data 66153.887149                       # average WriteReq mshr miss latency
system.cpu1.dcache.WriteReq_avg_mshr_miss_latency::total 66153.887149                       # average WriteReq mshr miss latency
system.cpu1.dcache.LoadLockedReq_hits::.cpu1.data      2177026                       # number of LoadLockedReq hits
system.cpu1.dcache.LoadLockedReq_hits::total      2177026                       # number of LoadLockedReq hits
system.cpu1.dcache.LoadLockedReq_misses::.cpu1.data         7843                       # number of LoadLockedReq misses
system.cpu1.dcache.LoadLockedReq_misses::total         7843                       # number of LoadLockedReq misses
system.cpu1.dcache.LoadLockedReq_miss_latency::.cpu1.data    183854500                       # number of LoadLockedReq miss cycles
system.cpu1.dcache.LoadLockedReq_miss_latency::total    183854500                       # number of LoadLockedReq miss cycles
system.cpu1.dcache.LoadLockedReq_accesses::.cpu1.data      2184869                       # number of LoadLockedReq accesses(hits+misses)
system.cpu1.dcache.LoadLockedReq_accesses::total      2184869                       # number of LoadLockedReq accesses(hits+misses)
system.cpu1.dcache.LoadLockedReq_miss_rate::.cpu1.data     0.003590                       # miss rate for LoadLockedReq accesses
system.cpu1.dcache.LoadLockedReq_miss_rate::total     0.003590                       # miss rate for LoadLockedReq accesses
system.cpu1.dcache.LoadLockedReq_avg_miss_latency::.cpu1.data 23441.858983                       # average LoadLockedReq miss latency
system.cpu1.dcache.LoadLockedReq_avg_miss_latency::total 23441.858983                       # average LoadLockedReq miss latency
system.cpu1.dcache.LoadLockedReq_mshr_hits::.cpu1.data         1066                       # number of LoadLockedReq MSHR hits
system.cpu1.dcache.LoadLockedReq_mshr_hits::total         1066                       # number of LoadLockedReq MSHR hits
system.cpu1.dcache.LoadLockedReq_mshr_misses::.cpu1.data         6777                       # number of LoadLockedReq MSHR misses
system.cpu1.dcache.LoadLockedReq_mshr_misses::total         6777                       # number of LoadLockedReq MSHR misses
system.cpu1.dcache.LoadLockedReq_mshr_miss_latency::.cpu1.data    156973500                       # number of LoadLockedReq MSHR miss cycles
system.cpu1.dcache.LoadLockedReq_mshr_miss_latency::total    156973500                       # number of LoadLockedReq MSHR miss cycles
system.cpu1.dcache.LoadLockedReq_mshr_miss_rate::.cpu1.data     0.003102                       # mshr miss rate for LoadLockedReq accesses
system.cpu1.dcache.LoadLockedReq_mshr_miss_rate::total     0.003102                       # mshr miss rate for LoadLockedReq accesses
system.cpu1.dcache.LoadLockedReq_avg_mshr_miss_latency::.cpu1.data 23162.682603                       # average LoadLockedReq mshr miss latency
system.cpu1.dcache.LoadLockedReq_avg_mshr_miss_latency::total 23162.682603                       # average LoadLockedReq mshr miss latency
system.cpu1.dcache.StoreCondReq_hits::.cpu1.data      2183482                       # number of StoreCondReq hits
system.cpu1.dcache.StoreCondReq_hits::total      2183482                       # number of StoreCondReq hits
system.cpu1.dcache.StoreCondReq_misses::.cpu1.data         1088                       # number of StoreCondReq misses
system.cpu1.dcache.StoreCondReq_misses::total         1088                       # number of StoreCondReq misses
system.cpu1.dcache.StoreCondReq_miss_latency::.cpu1.data     18941000                       # number of StoreCondReq miss cycles
system.cpu1.dcache.StoreCondReq_miss_latency::total     18941000                       # number of StoreCondReq miss cycles
system.cpu1.dcache.StoreCondReq_accesses::.cpu1.data      2184570                       # number of StoreCondReq accesses(hits+misses)
system.cpu1.dcache.StoreCondReq_accesses::total      2184570                       # number of StoreCondReq accesses(hits+misses)
system.cpu1.dcache.StoreCondReq_miss_rate::.cpu1.data     0.000498                       # miss rate for StoreCondReq accesses
system.cpu1.dcache.StoreCondReq_miss_rate::total     0.000498                       # miss rate for StoreCondReq accesses
system.cpu1.dcache.StoreCondReq_avg_miss_latency::.cpu1.data 17409.007353                       # average StoreCondReq miss latency
system.cpu1.dcache.StoreCondReq_avg_miss_latency::total 17409.007353                       # average StoreCondReq miss latency
system.cpu1.dcache.StoreCondReq_mshr_misses::.cpu1.data         1060                       # number of StoreCondReq MSHR misses
system.cpu1.dcache.StoreCondReq_mshr_misses::total         1060                       # number of StoreCondReq MSHR misses
system.cpu1.dcache.StoreCondReq_mshr_miss_latency::.cpu1.data     17885000                       # number of StoreCondReq MSHR miss cycles
system.cpu1.dcache.StoreCondReq_mshr_miss_latency::total     17885000                       # number of StoreCondReq MSHR miss cycles
system.cpu1.dcache.StoreCondReq_mshr_miss_rate::.cpu1.data     0.000485                       # mshr miss rate for StoreCondReq accesses
system.cpu1.dcache.StoreCondReq_mshr_miss_rate::total     0.000485                       # mshr miss rate for StoreCondReq accesses
system.cpu1.dcache.StoreCondReq_avg_mshr_miss_latency::.cpu1.data 16872.641509                       # average StoreCondReq mshr miss latency
system.cpu1.dcache.StoreCondReq_avg_mshr_miss_latency::total 16872.641509                       # average StoreCondReq mshr miss latency
system.cpu1.dcache.StoreCondFailReq_miss_latency::.cpu1.data       134000                       # number of StoreCondFailReq miss cycles
system.cpu1.dcache.StoreCondFailReq_miss_latency::total       134000                       # number of StoreCondFailReq miss cycles
system.cpu1.dcache.StoreCondFailReq_avg_miss_latency::.cpu1.data          inf                       # average StoreCondFailReq miss latency
system.cpu1.dcache.StoreCondFailReq_avg_miss_latency::total          inf                       # average StoreCondFailReq miss latency
system.cpu1.dcache.StoreCondFailReq_mshr_miss_latency::.cpu1.data       130000                       # number of StoreCondFailReq MSHR miss cycles
system.cpu1.dcache.StoreCondFailReq_mshr_miss_latency::total       130000                       # number of StoreCondFailReq MSHR miss cycles
system.cpu1.dcache.StoreCondFailReq_avg_mshr_miss_latency::.cpu1.data          inf                       # average StoreCondFailReq mshr miss latency
system.cpu1.dcache.StoreCondFailReq_avg_mshr_miss_latency::total          inf                       # average StoreCondFailReq mshr miss latency
system.cpu1.dcache.SwapReq_hits::.cpu1.data          505                       # number of SwapReq hits
system.cpu1.dcache.SwapReq_hits::total            505                       # number of SwapReq hits
system.cpu1.dcache.SwapReq_misses::.cpu1.data         1858                       # number of SwapReq misses
system.cpu1.dcache.SwapReq_misses::total         1858                       # number of SwapReq misses
system.cpu1.dcache.SwapReq_miss_latency::.cpu1.data    137961000                       # number of SwapReq miss cycles
system.cpu1.dcache.SwapReq_miss_latency::total    137961000                       # number of SwapReq miss cycles
system.cpu1.dcache.SwapReq_accesses::.cpu1.data         2363                       # number of SwapReq accesses(hits+misses)
system.cpu1.dcache.SwapReq_accesses::total         2363                       # number of SwapReq accesses(hits+misses)
system.cpu1.dcache.SwapReq_miss_rate::.cpu1.data     0.786289                       # miss rate for SwapReq accesses
system.cpu1.dcache.SwapReq_miss_rate::total     0.786289                       # miss rate for SwapReq accesses
system.cpu1.dcache.SwapReq_avg_miss_latency::.cpu1.data 74252.421959                       # average SwapReq miss latency
system.cpu1.dcache.SwapReq_avg_miss_latency::total 74252.421959                       # average SwapReq miss latency
system.cpu1.dcache.SwapReq_mshr_misses::.cpu1.data         1858                       # number of SwapReq MSHR misses
system.cpu1.dcache.SwapReq_mshr_misses::total         1858                       # number of SwapReq MSHR misses
system.cpu1.dcache.SwapReq_mshr_miss_latency::.cpu1.data    136103000                       # number of SwapReq MSHR miss cycles
system.cpu1.dcache.SwapReq_mshr_miss_latency::total    136103000                       # number of SwapReq MSHR miss cycles
system.cpu1.dcache.SwapReq_mshr_miss_rate::.cpu1.data     0.786289                       # mshr miss rate for SwapReq accesses
system.cpu1.dcache.SwapReq_mshr_miss_rate::total     0.786289                       # mshr miss rate for SwapReq accesses
system.cpu1.dcache.SwapReq_avg_mshr_miss_latency::.cpu1.data 73252.421959                       # average SwapReq mshr miss latency
system.cpu1.dcache.SwapReq_avg_mshr_miss_latency::total 73252.421959                       # average SwapReq mshr miss latency
system.cpu1.dcache.tags.pwrStateResidencyTicks::UNDEFINED 1097567716500                       # Cumulative time (in ticks) in various power states
system.cpu1.dcache.tags.tagsinuse           31.993441                       # Cycle average of tags in use
system.cpu1.dcache.tags.total_refs          169073751                       # Total number of references to valid blocks.
system.cpu1.dcache.tags.sampled_refs         13124182                       # Sample count of references to valid blocks.
system.cpu1.dcache.tags.avg_refs            12.882612                       # Average number of references to valid blocks.
system.cpu1.dcache.tags.warmup_cycle                0                       # Cycle when the warmup percentage was hit.
system.cpu1.dcache.tags.occ_blocks::.cpu1.data    31.993441                       # Average occupied blocks per requestor
system.cpu1.dcache.tags.occ_percent::.cpu1.data     0.999795                       # Average percentage of cache occupancy
system.cpu1.dcache.tags.occ_percent::total     0.999795                       # Average percentage of cache occupancy
system.cpu1.dcache.tags.occ_task_id_blocks::1024           31                       # Occupied blocks per task id
system.cpu1.dcache.tags.age_task_id_blocks_1024::2           31                       # Occupied blocks per task id
system.cpu1.dcache.tags.occ_task_id_percent::1024     0.968750                       # Percentage of cache occupancy per task id
system.cpu1.dcache.tags.tag_accesses        389037342                       # Number of tag accesses
system.cpu1.dcache.tags.data_accesses       389037342                       # Number of data accesses
system.cpu_clk_domain.clock                       500                       # Clock period in ticks
system.tol2bus.pwrStateResidencyTicks::UNDEFINED 1097567716500                       # Cumulative time (in ticks) in various power states
system.tol2bus.trans_dist::ReadResp          30818895                       # Transaction distribution
system.tol2bus.trans_dist::WritebackDirty     10652907                       # Transaction distribution
system.tol2bus.trans_dist::WritebackClean     25779655                       # Transaction distribution
system.tol2bus.trans_dist::CleanEvict        57175132                       # Transaction distribution
system.tol2bus.trans_dist::HardPFReq         18481298                       # Transaction distribution
system.tol2bus.trans_dist::HardPFResp               5                       # Transaction distribution
system.tol2bus.trans_dist::UpgradeReq            9318                       # Transaction distribution
system.tol2bus.trans_dist::SCUpgradeReq          2201                       # Transaction distribution
system.tol2bus.trans_dist::UpgradeResp          11519                       # Transaction distribution
system.tol2bus.trans_dist::SCUpgradeFailReq            7                       # Transaction distribution
system.tol2bus.trans_dist::UpgradeFailResp            7                       # Transaction distribution
system.tol2bus.trans_dist::ReadExReq           494142                       # Transaction distribution
system.tol2bus.trans_dist::ReadExResp          494142                       # Transaction distribution
system.tol2bus.trans_dist::ReadCleanReq        422628                       # Transaction distribution
system.tol2bus.trans_dist::ReadSharedReq     30396267                       # Transaction distribution
system.tol2bus.trans_dist::InvalidateReq          254                       # Transaction distribution
system.tol2bus.trans_dist::InvalidateResp          254                       # Transaction distribution
system.tol2bus.pkt_count_system.cpu0.icache.mem_side::system.l2.cpu_side      1251069                       # Packet count per connected master and slave (bytes)
system.tol2bus.pkt_count_system.cpu0.dcache.mem_side::system.l2.cpu_side     53294779                       # Packet count per connected master and slave (bytes)
system.tol2bus.pkt_count_system.cpu1.icache.mem_side::system.l2.cpu_side        16815                       # Packet count per connected master and slave (bytes)
system.tol2bus.pkt_count_system.cpu1.dcache.mem_side::system.l2.cpu_side     39371034                       # Packet count per connected master and slave (bytes)
system.tol2bus.pkt_count::total              93933697                       # Packet count per connected master and slave (bytes)
system.tol2bus.pkt_size_system.cpu0.icache.mem_side::system.l2.cpu_side     53378944                       # Cumulative packet size per connected master and slave (bytes)
system.tol2bus.pkt_size_system.cpu0.dcache.mem_side::system.l2.cpu_side   2273174272                       # Cumulative packet size per connected master and slave (bytes)
system.tol2bus.pkt_size_system.cpu1.icache.mem_side::system.l2.cpu_side       717440                       # Cumulative packet size per connected master and slave (bytes)
system.tol2bus.pkt_size_system.cpu1.dcache.mem_side::system.l2.cpu_side   1679057024                       # Cumulative packet size per connected master and slave (bytes)
system.tol2bus.pkt_size::total             4006327680                       # Cumulative packet size per connected master and slave (bytes)
system.tol2bus.snoops                        80804939                       # Total snoops (count)
system.tol2bus.snoopTraffic                 329391744                       # Total snoop traffic (bytes)
system.tol2bus.snoop_fanout::samples        112111540                       # Request fanout histogram
system.tol2bus.snoop_fanout::mean            0.242600                       # Request fanout histogram
system.tol2bus.snoop_fanout::stdev           0.437206                       # Request fanout histogram
system.tol2bus.snoop_fanout::underflows             0      0.00%      0.00% # Request fanout histogram
system.tol2bus.snoop_fanout::0               85328295     76.11%     76.11% # Request fanout histogram
system.tol2bus.snoop_fanout::1               26368234     23.52%     99.63% # Request fanout histogram
system.tol2bus.snoop_fanout::2                 415011      0.37%    100.00% # Request fanout histogram
system.tol2bus.snoop_fanout::3                      0      0.00%    100.00% # Request fanout histogram
system.tol2bus.snoop_fanout::4                      0      0.00%    100.00% # Request fanout histogram
system.tol2bus.snoop_fanout::5                      0      0.00%    100.00% # Request fanout histogram
system.tol2bus.snoop_fanout::6                      0      0.00%    100.00% # Request fanout histogram
system.tol2bus.snoop_fanout::7                      0      0.00%    100.00% # Request fanout histogram
system.tol2bus.snoop_fanout::8                      0      0.00%    100.00% # Request fanout histogram
system.tol2bus.snoop_fanout::overflows              0      0.00%    100.00% # Request fanout histogram
system.tol2bus.snoop_fanout::min_value              0                       # Request fanout histogram
system.tol2bus.snoop_fanout::max_value              2                       # Request fanout histogram
system.tol2bus.snoop_fanout::total          112111540                       # Request fanout histogram
system.tol2bus.reqLayer0.occupancy        62615960893                       # Layer occupancy (ticks)
system.tol2bus.reqLayer0.utilization              5.7                       # Layer utilization (%)
system.tol2bus.respLayer1.occupancy       26661379554                       # Layer occupancy (ticks)
system.tol2bus.respLayer1.utilization             2.4                       # Layer utilization (%)
system.tol2bus.respLayer0.occupancy         625684699                       # Layer occupancy (ticks)
system.tol2bus.respLayer0.utilization             0.1                       # Layer utilization (%)
system.tol2bus.respLayer3.occupancy       19698015112                       # Layer occupancy (ticks)
system.tol2bus.respLayer3.utilization             1.8                       # Layer utilization (%)
system.tol2bus.respLayer2.occupancy           8455404                       # Layer occupancy (ticks)
system.tol2bus.respLayer2.utilization             0.0                       # Layer utilization (%)
system.tol2bus.snoopLayer0.occupancy             7503                       # Layer occupancy (ticks)
system.tol2bus.snoopLayer0.utilization            0.0                       # Layer utilization (%)

---------- End Simulation Statistics   ----------
