
---------- Begin Simulation Statistics ----------
final_tick                               679622550000                       # Number of ticks from beginning of simulation (restored from checkpoints and never reset)
host_inst_rate                                  76104                       # Simulator instruction rate (inst/s)
host_mem_usage                                 701956                       # Number of bytes of host memory used
host_op_rate                                    76332                       # Simulator op (including micro ops) rate (op/s)
host_seconds                                  8949.00                       # Real time elapsed on the host
host_tick_rate                               75943972                       # Simulator tick rate (ticks/s)
sim_freq                                 1000000000000                       # Frequency of simulated ticks
sim_insts                                   681056172                       # Number of instructions simulated
sim_ops                                     683093779                       # Number of ops (including micro ops) simulated
sim_seconds                                  0.679623                       # Number of seconds simulated
sim_ticks                                679622550000                       # Number of ticks simulated
system.cpu0.branchPred.BTBCorrect                   0                       # Number of correct BTB predictions (this stat may not work properly.
system.cpu0.branchPred.BTBHitPct            84.484015                       # BTB Hit Percentage
system.cpu0.branchPred.BTBHits               85412574                       # Number of BTB hits
system.cpu0.branchPred.BTBLookups           101099094                       # Number of BTB lookups
system.cpu0.branchPred.RASInCorrect                 0                       # Number of incorrect RAS predictions.
system.cpu0.branchPred.condIncorrect          8659449                       # Number of conditional branches incorrect
system.cpu0.branchPred.condPredicted        132758049                       # Number of conditional branches predicted
system.cpu0.branchPred.indirectHits          14431833                       # Number of indirect target hits.
system.cpu0.branchPred.indirectLookups       14549421                       # Number of indirect predictor lookups.
system.cpu0.branchPred.indirectMisses          117588                       # Number of indirect misses.
system.cpu0.branchPred.lookups              171271339                       # Number of BP lookups
system.cpu0.branchPred.usedRAS                      0                       # Number of times the RAS was used to get a target.
system.cpu0.branchPredindirectMispredicted      1082962                       # Number of mispredicted indirect branches.
system.cpu0.commit.amos                       1018213                       # Number of atomic instructions committed
system.cpu0.commit.branchMispredicts          5524628                       # The number of times a branch was mispredicted
system.cpu0.commit.branches                 151212055                       # Number of branches committed
system.cpu0.commit.bw_lim_events             20446610                       # number cycles where commit BW limit reached
system.cpu0.commit.commitNonSpecStalls        3058501                       # The number of times commit has been forced to stall to communicate backwards
system.cpu0.commit.commitSquashedInsts       87381571                       # The number of squashed insts skipped by commit
system.cpu0.commit.committedInsts           623663703                       # Number of instructions committed
system.cpu0.commit.committedOps             624683196                       # Number of ops (including micro ops) committed
system.cpu0.commit.committed_per_cycle::samples   1145654768                       # Number of insts commited each cycle
system.cpu0.commit.committed_per_cycle::mean     0.545263                       # Number of insts commited each cycle
system.cpu0.commit.committed_per_cycle::stdev     1.357239                       # Number of insts commited each cycle
system.cpu0.commit.committed_per_cycle::underflows            0      0.00%      0.00% # Number of insts commited each cycle
system.cpu0.commit.committed_per_cycle::0    857143307     74.82%     74.82% # Number of insts commited each cycle
system.cpu0.commit.committed_per_cycle::1    167534438     14.62%     89.44% # Number of insts commited each cycle
system.cpu0.commit.committed_per_cycle::2     43964608      3.84%     93.28% # Number of insts commited each cycle
system.cpu0.commit.committed_per_cycle::3     33330403      2.91%     96.19% # Number of insts commited each cycle
system.cpu0.commit.committed_per_cycle::4     15346471      1.34%     97.53% # Number of insts commited each cycle
system.cpu0.commit.committed_per_cycle::5      4680468      0.41%     97.94% # Number of insts commited each cycle
system.cpu0.commit.committed_per_cycle::6      1592012      0.14%     98.07% # Number of insts commited each cycle
system.cpu0.commit.committed_per_cycle::7      1616451      0.14%     98.22% # Number of insts commited each cycle
system.cpu0.commit.committed_per_cycle::8     20446610      1.78%    100.00% # Number of insts commited each cycle
system.cpu0.commit.committed_per_cycle::overflows            0      0.00%    100.00% # Number of insts commited each cycle
system.cpu0.commit.committed_per_cycle::min_value            0                       # Number of insts commited each cycle
system.cpu0.commit.committed_per_cycle::max_value            8                       # Number of insts commited each cycle
system.cpu0.commit.committed_per_cycle::total   1145654768                       # Number of insts commited each cycle
system.cpu0.commit.fp_insts                        50                       # Number of committed floating point instructions.
system.cpu0.commit.function_calls            13130527                       # Number of function calls committed.
system.cpu0.commit.int_insts                604978943                       # Number of committed integer instructions.
system.cpu0.commit.loads                    190160026                       # Number of loads committed
system.cpu0.commit.membars                    2037591                       # Number of memory barriers committed
system.cpu0.commit.op_class_0::No_OpClass      2037597      0.33%      0.33% # Class of committed instruction
system.cpu0.commit.op_class_0::IntAlu       347125693     55.57%     55.89% # Class of committed instruction
system.cpu0.commit.op_class_0::IntMult        4400507      0.70%     56.60% # Class of committed instruction
system.cpu0.commit.op_class_0::IntDiv         1542070      0.25%     56.85% # Class of committed instruction
system.cpu0.commit.op_class_0::FloatAdd             0      0.00%     56.85% # Class of committed instruction
system.cpu0.commit.op_class_0::FloatCmp             4      0.00%     56.85% # Class of committed instruction
system.cpu0.commit.op_class_0::FloatCvt            12      0.00%     56.85% # Class of committed instruction
system.cpu0.commit.op_class_0::FloatMult            0      0.00%     56.85% # Class of committed instruction
system.cpu0.commit.op_class_0::FloatMultAcc            0      0.00%     56.85% # Class of committed instruction
system.cpu0.commit.op_class_0::FloatDiv             2      0.00%     56.85% # Class of committed instruction
system.cpu0.commit.op_class_0::FloatMisc            4      0.00%     56.85% # Class of committed instruction
system.cpu0.commit.op_class_0::FloatSqrt            0      0.00%     56.85% # Class of committed instruction
system.cpu0.commit.op_class_0::SimdAdd              0      0.00%     56.85% # Class of committed instruction
system.cpu0.commit.op_class_0::SimdAddAcc            0      0.00%     56.85% # Class of committed instruction
system.cpu0.commit.op_class_0::SimdAlu              0      0.00%     56.85% # Class of committed instruction
system.cpu0.commit.op_class_0::SimdCmp              0      0.00%     56.85% # Class of committed instruction
system.cpu0.commit.op_class_0::SimdCvt              0      0.00%     56.85% # Class of committed instruction
system.cpu0.commit.op_class_0::SimdMisc             0      0.00%     56.85% # Class of committed instruction
system.cpu0.commit.op_class_0::SimdMult             0      0.00%     56.85% # Class of committed instruction
system.cpu0.commit.op_class_0::SimdMultAcc            0      0.00%     56.85% # Class of committed instruction
system.cpu0.commit.op_class_0::SimdShift            0      0.00%     56.85% # Class of committed instruction
system.cpu0.commit.op_class_0::SimdShiftAcc            0      0.00%     56.85% # Class of committed instruction
system.cpu0.commit.op_class_0::SimdDiv              0      0.00%     56.85% # Class of committed instruction
system.cpu0.commit.op_class_0::SimdSqrt             0      0.00%     56.85% # Class of committed instruction
system.cpu0.commit.op_class_0::SimdFloatAdd            0      0.00%     56.85% # Class of committed instruction
system.cpu0.commit.op_class_0::SimdFloatAlu            0      0.00%     56.85% # Class of committed instruction
system.cpu0.commit.op_class_0::SimdFloatCmp            0      0.00%     56.85% # Class of committed instruction
system.cpu0.commit.op_class_0::SimdFloatCvt            0      0.00%     56.85% # Class of committed instruction
system.cpu0.commit.op_class_0::SimdFloatDiv            0      0.00%     56.85% # Class of committed instruction
system.cpu0.commit.op_class_0::SimdFloatMisc            0      0.00%     56.85% # Class of committed instruction
system.cpu0.commit.op_class_0::SimdFloatMult            0      0.00%     56.85% # Class of committed instruction
system.cpu0.commit.op_class_0::SimdFloatMultAcc            0      0.00%     56.85% # Class of committed instruction
system.cpu0.commit.op_class_0::SimdFloatSqrt            0      0.00%     56.85% # Class of committed instruction
system.cpu0.commit.op_class_0::SimdReduceAdd            0      0.00%     56.85% # Class of committed instruction
system.cpu0.commit.op_class_0::SimdReduceAlu            0      0.00%     56.85% # Class of committed instruction
system.cpu0.commit.op_class_0::SimdReduceCmp            0      0.00%     56.85% # Class of committed instruction
system.cpu0.commit.op_class_0::SimdFloatReduceAdd            0      0.00%     56.85% # Class of committed instruction
system.cpu0.commit.op_class_0::SimdFloatReduceCmp            0      0.00%     56.85% # Class of committed instruction
system.cpu0.commit.op_class_0::SimdAes              0      0.00%     56.85% # Class of committed instruction
system.cpu0.commit.op_class_0::SimdAesMix            0      0.00%     56.85% # Class of committed instruction
system.cpu0.commit.op_class_0::SimdSha1Hash            0      0.00%     56.85% # Class of committed instruction
system.cpu0.commit.op_class_0::SimdSha1Hash2            0      0.00%     56.85% # Class of committed instruction
system.cpu0.commit.op_class_0::SimdSha256Hash            0      0.00%     56.85% # Class of committed instruction
system.cpu0.commit.op_class_0::SimdSha256Hash2            0      0.00%     56.85% # Class of committed instruction
system.cpu0.commit.op_class_0::SimdShaSigma2            0      0.00%     56.85% # Class of committed instruction
system.cpu0.commit.op_class_0::SimdShaSigma3            0      0.00%     56.85% # Class of committed instruction
system.cpu0.commit.op_class_0::SimdPredAlu            0      0.00%     56.85% # Class of committed instruction
system.cpu0.commit.op_class_0::MemRead      191178231     30.60%     87.45% # Class of committed instruction
system.cpu0.commit.op_class_0::MemWrite      78399048     12.55%    100.00% # Class of committed instruction
system.cpu0.commit.op_class_0::FloatMemRead            8      0.00%    100.00% # Class of committed instruction
system.cpu0.commit.op_class_0::FloatMemWrite           20      0.00%    100.00% # Class of committed instruction
system.cpu0.commit.op_class_0::IprAccess            0      0.00%    100.00% # Class of committed instruction
system.cpu0.commit.op_class_0::InstPrefetch            0      0.00%    100.00% # Class of committed instruction
system.cpu0.commit.op_class_0::total        624683196                       # Class of committed instruction
system.cpu0.commit.refs                     269577307                       # Number of memory references committed
system.cpu0.commit.swp_count                        0                       # Number of s/w prefetches committed
system.cpu0.commit.vec_insts                        0                       # Number of committed Vector instructions.
system.cpu0.committedInsts                  623663703                       # Number of Instructions Simulated
system.cpu0.committedOps                    624683196                       # Number of Ops (including micro ops) Simulated
system.cpu0.cpi                              2.165975                       # CPI: Cycles Per Instruction
system.cpu0.cpi_total                        2.165975                       # CPI: Total CPI of All Threads
system.cpu0.decode.BlockedCycles            236374527                       # Number of cycles decode is blocked
system.cpu0.decode.BranchMispred              3142618                       # Number of times decode detected a branch misprediction
system.cpu0.decode.BranchResolved            83607060                       # Number of times decode resolved a branch
system.cpu0.decode.DecodedInsts             724346612                       # Number of instructions handled by decode
system.cpu0.decode.IdleCycles               407830031                       # Number of cycles decode is idle
system.cpu0.decode.RunCycles                506428188                       # Number of cycles decode is running
system.cpu0.decode.SquashCycles               5533714                       # Number of cycles decode is squashing
system.cpu0.decode.SquashedInsts             10036021                       # Number of squashed instructions handled by decode
system.cpu0.decode.UnblockCycles              4334946                       # Number of cycles decode is unblocking
system.cpu0.dtb.accesses                            0                       # DTB accesses
system.cpu0.dtb.hits                                0                       # DTB hits
system.cpu0.dtb.misses                              0                       # DTB misses
system.cpu0.dtb.read_accesses                       0                       # DTB read accesses
system.cpu0.dtb.read_hits                           0                       # DTB read hits
system.cpu0.dtb.read_misses                         0                       # DTB read misses
system.cpu0.dtb.write_accesses                      0                       # DTB write accesses
system.cpu0.dtb.write_hits                          0                       # DTB write hits
system.cpu0.dtb.write_misses                        0                       # DTB write misses
system.cpu0.fetch.Branches                  171271339                       # Number of branches that fetch encountered
system.cpu0.fetch.CacheLines                128943005                       # Number of cache lines fetched
system.cpu0.fetch.Cycles                    743063924                       # Number of cycles fetch has run and was not squashing or blocked
system.cpu0.fetch.IcacheSquashes              2927949                       # Number of outstanding Icache misses that were squashed
system.cpu0.fetch.IcacheWaitRetryStallCycles           87                       # Number of stall cycles due to full MSHR
system.cpu0.fetch.Insts                     744029571                       # Number of instructions fetch has processed
system.cpu0.fetch.MiscStallCycles                 203                       # Number of cycles fetch has spent waiting on interrupts, or bad addresses, or out of MSHRs
system.cpu0.fetch.PendingTrapStallCycles         1257                       # Number of stall cycles due to pending traps
system.cpu0.fetch.SquashCycles               17337420                       # Number of cycles fetch has spent squashing
system.cpu0.fetch.branchRate                 0.126789                       # Number of branch fetches per cycle
system.cpu0.fetch.icacheStallCycles         408767225                       # Number of cycles fetch is stalled on an Icache miss
system.cpu0.fetch.predictedBranches          99844407                       # Number of branches that fetch has predicted taken
system.cpu0.fetch.rate                       0.550790                       # Number of inst fetches per cycle
system.cpu0.fetch.rateDist::samples        1160501406                       # Number of instructions fetched each cycle (Total)
system.cpu0.fetch.rateDist::mean             0.642007                       # Number of instructions fetched each cycle (Total)
system.cpu0.fetch.rateDist::stdev            0.878532                       # Number of instructions fetched each cycle (Total)
system.cpu0.fetch.rateDist::underflows              0      0.00%      0.00% # Number of instructions fetched each cycle (Total)
system.cpu0.fetch.rateDist::0               623478187     53.72%     53.72% # Number of instructions fetched each cycle (Total)
system.cpu0.fetch.rateDist::1               401973343     34.64%     88.36% # Number of instructions fetched each cycle (Total)
system.cpu0.fetch.rateDist::2                83378743      7.18%     95.55% # Number of instructions fetched each cycle (Total)
system.cpu0.fetch.rateDist::3                39013239      3.36%     98.91% # Number of instructions fetched each cycle (Total)
system.cpu0.fetch.rateDist::4                 6513850      0.56%     99.47% # Number of instructions fetched each cycle (Total)
system.cpu0.fetch.rateDist::5                 4665278      0.40%     99.87% # Number of instructions fetched each cycle (Total)
system.cpu0.fetch.rateDist::6                  457060      0.04%     99.91% # Number of instructions fetched each cycle (Total)
system.cpu0.fetch.rateDist::7                 1018742      0.09%    100.00% # Number of instructions fetched each cycle (Total)
system.cpu0.fetch.rateDist::8                    2964      0.00%    100.00% # Number of instructions fetched each cycle (Total)
system.cpu0.fetch.rateDist::overflows               0      0.00%    100.00% # Number of instructions fetched each cycle (Total)
system.cpu0.fetch.rateDist::min_value               0                       # Number of instructions fetched each cycle (Total)
system.cpu0.fetch.rateDist::max_value               8                       # Number of instructions fetched each cycle (Total)
system.cpu0.fetch.rateDist::total          1160501406                       # Number of instructions fetched each cycle (Total)
system.cpu0.fp_regfile_reads                       44                       # number of floating regfile reads
system.cpu0.fp_regfile_writes                      23                       # number of floating regfile writes
system.cpu0.idleCycles                      190338774                       # Total number of cycles that the CPU has spent unscheduled due to idling
system.cpu0.iew.branchMispredicts             5591386                       # Number of branch mispredicts detected at execute
system.cpu0.iew.exec_branches               161680133                       # Number of branches executed
system.cpu0.iew.exec_nop                            0                       # number of nop insts executed
system.cpu0.iew.exec_rate                    0.519724                       # Inst execution rate
system.cpu0.iew.exec_refs                   318051769                       # number of memory reference insts executed
system.cpu0.iew.exec_stores                  97194222                       # Number of stores executed
system.cpu0.iew.exec_swp                            0                       # number of swp insts executed
system.cpu0.iew.iewBlockCycles              179004649                       # Number of cycles IEW is blocking
system.cpu0.iew.iewDispLoadInsts            220579241                       # Number of dispatched load instructions
system.cpu0.iew.iewDispNonSpecInsts           1021141                       # Number of dispatched non-speculative instructions
system.cpu0.iew.iewDispSquashedInsts          2435127                       # Number of squashed instructions skipped by dispatch
system.cpu0.iew.iewDispStoreInsts           100488928                       # Number of dispatched store instructions
system.cpu0.iew.iewDispatchedInsts          712044393                       # Number of instructions dispatched to IQ
system.cpu0.iew.iewExecLoadInsts            220857547                       # Number of load instructions executed
system.cpu0.iew.iewExecSquashedInsts          4289327                       # Number of squashed instructions skipped in execute
system.cpu0.iew.iewExecutedInsts            702064252                       # Number of executed instructions
system.cpu0.iew.iewIQFullEvents                737993                       # Number of times the IQ has become full, causing a stall
system.cpu0.iew.iewIdleCycles                       0                       # Number of cycles IEW is idle
system.cpu0.iew.iewLSQFullEvents              9372013                       # Number of times the LSQ has become full, causing a stall
system.cpu0.iew.iewSquashCycles               5533714                       # Number of cycles IEW is squashing
system.cpu0.iew.iewUnblockCycles             11463353                       # Number of cycles IEW is unblocking
system.cpu0.iew.lsq.thread0.blockedLoads            0                       # Number of blocked loads due to partial load-store forwarding
system.cpu0.iew.lsq.thread0.cacheBlocked       219182                       # Number of times an access to memory failed due to the cache being blocked
system.cpu0.iew.lsq.thread0.forwLoads        15376703                       # Number of loads that had data forwarded from stores
system.cpu0.iew.lsq.thread0.ignoredResponses         8565                       # Number of memory responses ignored because the instruction is squashed
system.cpu0.iew.lsq.thread0.invAddrLoads            0                       # Number of loads ignored due to an invalid address
system.cpu0.iew.lsq.thread0.invAddrSwpfs            0                       # Number of software prefetches ignored due to an invalid address
system.cpu0.iew.lsq.thread0.memOrderViolation        10143                       # Number of memory ordering violations
system.cpu0.iew.lsq.thread0.rescheduledLoads      4270668                       # Number of loads that were rescheduled
system.cpu0.iew.lsq.thread0.squashedLoads     30419215                       # Number of loads squashed
system.cpu0.iew.lsq.thread0.squashedStores     21071636                       # Number of stores squashed
system.cpu0.iew.memOrderViolationEvents         10143                       # Number of memory order violations
system.cpu0.iew.predictedNotTakenIncorrect       686192                       # Number of branches that were predicted not taken incorrectly
system.cpu0.iew.predictedTakenIncorrect       4905194                       # Number of branches that were predicted taken incorrectly
system.cpu0.iew.wb_consumers                303935441                       # num instructions consuming a value
system.cpu0.iew.wb_count                    693941509                       # cumulative count of insts written-back
system.cpu0.iew.wb_fanout                    0.842006                       # average fanout of values written-back
system.cpu0.iew.wb_producers                255915450                       # num instructions producing a value
system.cpu0.iew.wb_rate                      0.513711                       # insts written-back per cycle
system.cpu0.iew.wb_sent                     694000414                       # cumulative count of insts sent to commit
system.cpu0.int_regfile_reads               866100322                       # number of integer regfile reads
system.cpu0.int_regfile_writes              441670918                       # number of integer regfile writes
system.cpu0.ipc                              0.461686                       # IPC: Instructions Per Cycle
system.cpu0.ipc_total                        0.461686                       # IPC: Total IPC of All Threads
system.cpu0.iq.FU_type_0::No_OpClass          2038639      0.29%      0.29% # Type of FU issued
system.cpu0.iq.FU_type_0::IntAlu            378693380     53.61%     53.90% # Type of FU issued
system.cpu0.iq.FU_type_0::IntMult             4406334      0.62%     54.52% # Type of FU issued
system.cpu0.iq.FU_type_0::IntDiv              1542696      0.22%     54.74% # Type of FU issued
system.cpu0.iq.FU_type_0::FloatAdd                  0      0.00%     54.74% # Type of FU issued
system.cpu0.iq.FU_type_0::FloatCmp                  4      0.00%     54.74% # Type of FU issued
system.cpu0.iq.FU_type_0::FloatCvt                 12      0.00%     54.74% # Type of FU issued
system.cpu0.iq.FU_type_0::FloatMult                 0      0.00%     54.74% # Type of FU issued
system.cpu0.iq.FU_type_0::FloatMultAcc              0      0.00%     54.74% # Type of FU issued
system.cpu0.iq.FU_type_0::FloatDiv                  2      0.00%     54.74% # Type of FU issued
system.cpu0.iq.FU_type_0::FloatMisc                 4      0.00%     54.74% # Type of FU issued
system.cpu0.iq.FU_type_0::FloatSqrt                 0      0.00%     54.74% # Type of FU issued
system.cpu0.iq.FU_type_0::SimdAdd                   0      0.00%     54.74% # Type of FU issued
system.cpu0.iq.FU_type_0::SimdAddAcc                0      0.00%     54.74% # Type of FU issued
system.cpu0.iq.FU_type_0::SimdAlu                   0      0.00%     54.74% # Type of FU issued
system.cpu0.iq.FU_type_0::SimdCmp                   0      0.00%     54.74% # Type of FU issued
system.cpu0.iq.FU_type_0::SimdCvt                   0      0.00%     54.74% # Type of FU issued
system.cpu0.iq.FU_type_0::SimdMisc                  0      0.00%     54.74% # Type of FU issued
system.cpu0.iq.FU_type_0::SimdMult                  0      0.00%     54.74% # Type of FU issued
system.cpu0.iq.FU_type_0::SimdMultAcc               0      0.00%     54.74% # Type of FU issued
system.cpu0.iq.FU_type_0::SimdShift                 0      0.00%     54.74% # Type of FU issued
system.cpu0.iq.FU_type_0::SimdShiftAcc              0      0.00%     54.74% # Type of FU issued
system.cpu0.iq.FU_type_0::SimdDiv                   0      0.00%     54.74% # Type of FU issued
system.cpu0.iq.FU_type_0::SimdSqrt                  0      0.00%     54.74% # Type of FU issued
system.cpu0.iq.FU_type_0::SimdFloatAdd              0      0.00%     54.74% # Type of FU issued
system.cpu0.iq.FU_type_0::SimdFloatAlu              0      0.00%     54.74% # Type of FU issued
system.cpu0.iq.FU_type_0::SimdFloatCmp              0      0.00%     54.74% # Type of FU issued
system.cpu0.iq.FU_type_0::SimdFloatCvt              0      0.00%     54.74% # Type of FU issued
system.cpu0.iq.FU_type_0::SimdFloatDiv              0      0.00%     54.74% # Type of FU issued
system.cpu0.iq.FU_type_0::SimdFloatMisc             0      0.00%     54.74% # Type of FU issued
system.cpu0.iq.FU_type_0::SimdFloatMult             0      0.00%     54.74% # Type of FU issued
system.cpu0.iq.FU_type_0::SimdFloatMultAcc            0      0.00%     54.74% # Type of FU issued
system.cpu0.iq.FU_type_0::SimdFloatSqrt             0      0.00%     54.74% # Type of FU issued
system.cpu0.iq.FU_type_0::SimdReduceAdd             0      0.00%     54.74% # Type of FU issued
system.cpu0.iq.FU_type_0::SimdReduceAlu             0      0.00%     54.74% # Type of FU issued
system.cpu0.iq.FU_type_0::SimdReduceCmp             0      0.00%     54.74% # Type of FU issued
system.cpu0.iq.FU_type_0::SimdFloatReduceAdd            0      0.00%     54.74% # Type of FU issued
system.cpu0.iq.FU_type_0::SimdFloatReduceCmp            0      0.00%     54.74% # Type of FU issued
system.cpu0.iq.FU_type_0::SimdAes                   0      0.00%     54.74% # Type of FU issued
system.cpu0.iq.FU_type_0::SimdAesMix                0      0.00%     54.74% # Type of FU issued
system.cpu0.iq.FU_type_0::SimdSha1Hash              0      0.00%     54.74% # Type of FU issued
system.cpu0.iq.FU_type_0::SimdSha1Hash2             0      0.00%     54.74% # Type of FU issued
system.cpu0.iq.FU_type_0::SimdSha256Hash            0      0.00%     54.74% # Type of FU issued
system.cpu0.iq.FU_type_0::SimdSha256Hash2            0      0.00%     54.74% # Type of FU issued
system.cpu0.iq.FU_type_0::SimdShaSigma2             0      0.00%     54.74% # Type of FU issued
system.cpu0.iq.FU_type_0::SimdShaSigma3             0      0.00%     54.74% # Type of FU issued
system.cpu0.iq.FU_type_0::SimdPredAlu               0      0.00%     54.74% # Type of FU issued
system.cpu0.iq.FU_type_0::MemRead           223066011     31.58%     86.32% # Type of FU issued
system.cpu0.iq.FU_type_0::MemWrite           96606469     13.68%    100.00% # Type of FU issued
system.cpu0.iq.FU_type_0::FloatMemRead              9      0.00%    100.00% # Type of FU issued
system.cpu0.iq.FU_type_0::FloatMemWrite            20      0.00%    100.00% # Type of FU issued
system.cpu0.iq.FU_type_0::IprAccess                 0      0.00%    100.00% # Type of FU issued
system.cpu0.iq.FU_type_0::InstPrefetch              0      0.00%    100.00% # Type of FU issued
system.cpu0.iq.FU_type_0::total             706353580                       # Type of FU issued
system.cpu0.iq.fp_alu_accesses                     55                       # Number of floating point alu accesses
system.cpu0.iq.fp_inst_queue_reads                106                       # Number of floating instruction queue reads
system.cpu0.iq.fp_inst_queue_wakeup_accesses           51                       # Number of floating instruction queue wakeup accesses
system.cpu0.iq.fp_inst_queue_writes                52                       # Number of floating instruction queue writes
system.cpu0.iq.fu_busy_cnt                    2338950                       # FU busy when requested
system.cpu0.iq.fu_busy_rate                  0.003311                       # FU busy rate (busy events/executed inst)
system.cpu0.iq.fu_full::No_OpClass                  0      0.00%      0.00% # attempts to use FU when none available
system.cpu0.iq.fu_full::IntAlu                 393411     16.82%     16.82% # attempts to use FU when none available
system.cpu0.iq.fu_full::IntMult                    52      0.00%     16.82% # attempts to use FU when none available
system.cpu0.iq.fu_full::IntDiv                 444822     19.02%     35.84% # attempts to use FU when none available
system.cpu0.iq.fu_full::FloatAdd                    0      0.00%     35.84% # attempts to use FU when none available
system.cpu0.iq.fu_full::FloatCmp                    0      0.00%     35.84% # attempts to use FU when none available
system.cpu0.iq.fu_full::FloatCvt                    0      0.00%     35.84% # attempts to use FU when none available
system.cpu0.iq.fu_full::FloatMult                   0      0.00%     35.84% # attempts to use FU when none available
system.cpu0.iq.fu_full::FloatMultAcc                0      0.00%     35.84% # attempts to use FU when none available
system.cpu0.iq.fu_full::FloatDiv                    0      0.00%     35.84% # attempts to use FU when none available
system.cpu0.iq.fu_full::FloatMisc                   0      0.00%     35.84% # attempts to use FU when none available
system.cpu0.iq.fu_full::FloatSqrt                   0      0.00%     35.84% # attempts to use FU when none available
system.cpu0.iq.fu_full::SimdAdd                     0      0.00%     35.84% # attempts to use FU when none available
system.cpu0.iq.fu_full::SimdAddAcc                  0      0.00%     35.84% # attempts to use FU when none available
system.cpu0.iq.fu_full::SimdAlu                     0      0.00%     35.84% # attempts to use FU when none available
system.cpu0.iq.fu_full::SimdCmp                     0      0.00%     35.84% # attempts to use FU when none available
system.cpu0.iq.fu_full::SimdCvt                     0      0.00%     35.84% # attempts to use FU when none available
system.cpu0.iq.fu_full::SimdMisc                    0      0.00%     35.84% # attempts to use FU when none available
system.cpu0.iq.fu_full::SimdMult                    0      0.00%     35.84% # attempts to use FU when none available
system.cpu0.iq.fu_full::SimdMultAcc                 0      0.00%     35.84% # attempts to use FU when none available
system.cpu0.iq.fu_full::SimdShift                   0      0.00%     35.84% # attempts to use FU when none available
system.cpu0.iq.fu_full::SimdShiftAcc                0      0.00%     35.84% # attempts to use FU when none available
system.cpu0.iq.fu_full::SimdDiv                     0      0.00%     35.84% # attempts to use FU when none available
system.cpu0.iq.fu_full::SimdSqrt                    0      0.00%     35.84% # attempts to use FU when none available
system.cpu0.iq.fu_full::SimdFloatAdd                0      0.00%     35.84% # attempts to use FU when none available
system.cpu0.iq.fu_full::SimdFloatAlu                0      0.00%     35.84% # attempts to use FU when none available
system.cpu0.iq.fu_full::SimdFloatCmp                0      0.00%     35.84% # attempts to use FU when none available
system.cpu0.iq.fu_full::SimdFloatCvt                0      0.00%     35.84% # attempts to use FU when none available
system.cpu0.iq.fu_full::SimdFloatDiv                0      0.00%     35.84% # attempts to use FU when none available
system.cpu0.iq.fu_full::SimdFloatMisc               0      0.00%     35.84% # attempts to use FU when none available
system.cpu0.iq.fu_full::SimdFloatMult               0      0.00%     35.84% # attempts to use FU when none available
system.cpu0.iq.fu_full::SimdFloatMultAcc            0      0.00%     35.84% # attempts to use FU when none available
system.cpu0.iq.fu_full::SimdFloatSqrt               0      0.00%     35.84% # attempts to use FU when none available
system.cpu0.iq.fu_full::SimdReduceAdd               0      0.00%     35.84% # attempts to use FU when none available
system.cpu0.iq.fu_full::SimdReduceAlu               0      0.00%     35.84% # attempts to use FU when none available
system.cpu0.iq.fu_full::SimdReduceCmp               0      0.00%     35.84% # attempts to use FU when none available
system.cpu0.iq.fu_full::SimdFloatReduceAdd            0      0.00%     35.84% # attempts to use FU when none available
system.cpu0.iq.fu_full::SimdFloatReduceCmp            0      0.00%     35.84% # attempts to use FU when none available
system.cpu0.iq.fu_full::SimdAes                     0      0.00%     35.84% # attempts to use FU when none available
system.cpu0.iq.fu_full::SimdAesMix                  0      0.00%     35.84% # attempts to use FU when none available
system.cpu0.iq.fu_full::SimdSha1Hash                0      0.00%     35.84% # attempts to use FU when none available
system.cpu0.iq.fu_full::SimdSha1Hash2               0      0.00%     35.84% # attempts to use FU when none available
system.cpu0.iq.fu_full::SimdSha256Hash              0      0.00%     35.84% # attempts to use FU when none available
system.cpu0.iq.fu_full::SimdSha256Hash2             0      0.00%     35.84% # attempts to use FU when none available
system.cpu0.iq.fu_full::SimdShaSigma2               0      0.00%     35.84% # attempts to use FU when none available
system.cpu0.iq.fu_full::SimdShaSigma3               0      0.00%     35.84% # attempts to use FU when none available
system.cpu0.iq.fu_full::SimdPredAlu                 0      0.00%     35.84% # attempts to use FU when none available
system.cpu0.iq.fu_full::MemRead               1268721     54.24%     90.08% # attempts to use FU when none available
system.cpu0.iq.fu_full::MemWrite               231940      9.92%    100.00% # attempts to use FU when none available
system.cpu0.iq.fu_full::FloatMemRead                0      0.00%    100.00% # attempts to use FU when none available
system.cpu0.iq.fu_full::FloatMemWrite               4      0.00%    100.00% # attempts to use FU when none available
system.cpu0.iq.fu_full::IprAccess                   0      0.00%    100.00% # attempts to use FU when none available
system.cpu0.iq.fu_full::InstPrefetch                0      0.00%    100.00% # attempts to use FU when none available
system.cpu0.iq.int_alu_accesses             706653836                       # Number of integer alu accesses
system.cpu0.iq.int_inst_queue_reads        2575697098                       # Number of integer instruction queue reads
system.cpu0.iq.int_inst_queue_wakeup_accesses    693941458                       # Number of integer instruction queue wakeup accesses
system.cpu0.iq.int_inst_queue_writes        799415025                       # Number of integer instruction queue writes
system.cpu0.iq.iqInstsAdded                 708985391                       # Number of instructions added to the IQ (excludes non-spec)
system.cpu0.iq.iqInstsIssued                706353580                       # Number of instructions issued
system.cpu0.iq.iqNonSpecInstsAdded            3059002                       # Number of non-speculative instructions added to the IQ
system.cpu0.iq.iqSquashedInstsExamined       87361112                       # Number of squashed instructions iterated over during squash; mainly for profiling
system.cpu0.iq.iqSquashedInstsIssued           149689                       # Number of squashed instructions issued
system.cpu0.iq.iqSquashedNonSpecRemoved           501                       # Number of squashed non-spec instructions that were removed
system.cpu0.iq.iqSquashedOperandsExamined     20363571                       # Number of squashed operands that are examined and possibly removed from graph
system.cpu0.iq.issued_per_cycle::samples   1160501406                       # Number of insts issued each cycle
system.cpu0.iq.issued_per_cycle::mean        0.608662                       # Number of insts issued each cycle
system.cpu0.iq.issued_per_cycle::stdev       0.844641                       # Number of insts issued each cycle
system.cpu0.iq.issued_per_cycle::underflows            0      0.00%      0.00% # Number of insts issued each cycle
system.cpu0.iq.issued_per_cycle::0          657661066     56.67%     56.67% # Number of insts issued each cycle
system.cpu0.iq.issued_per_cycle::1          346841805     29.89%     86.56% # Number of insts issued each cycle
system.cpu0.iq.issued_per_cycle::2          124381242     10.72%     97.28% # Number of insts issued each cycle
system.cpu0.iq.issued_per_cycle::3           21495795      1.85%     99.13% # Number of insts issued each cycle
system.cpu0.iq.issued_per_cycle::4            6827100      0.59%     99.72% # Number of insts issued each cycle
system.cpu0.iq.issued_per_cycle::5            1278420      0.11%     99.83% # Number of insts issued each cycle
system.cpu0.iq.issued_per_cycle::6            1652157      0.14%     99.97% # Number of insts issued each cycle
system.cpu0.iq.issued_per_cycle::7             262104      0.02%     99.99% # Number of insts issued each cycle
system.cpu0.iq.issued_per_cycle::8             101717      0.01%    100.00% # Number of insts issued each cycle
system.cpu0.iq.issued_per_cycle::overflows            0      0.00%    100.00% # Number of insts issued each cycle
system.cpu0.iq.issued_per_cycle::min_value            0                       # Number of insts issued each cycle
system.cpu0.iq.issued_per_cycle::max_value            8                       # Number of insts issued each cycle
system.cpu0.iq.issued_per_cycle::total     1160501406                       # Number of insts issued each cycle
system.cpu0.iq.rate                          0.522899                       # Inst issue rate
system.cpu0.iq.vec_alu_accesses                     0                       # Number of vector alu accesses
system.cpu0.iq.vec_inst_queue_reads                 0                       # Number of vector instruction queue reads
system.cpu0.iq.vec_inst_queue_wakeup_accesses            0                       # Number of vector instruction queue wakeup accesses
system.cpu0.iq.vec_inst_queue_writes                0                       # Number of vector instruction queue writes
system.cpu0.itb.accesses                            0                       # DTB accesses
system.cpu0.itb.hits                                0                       # DTB hits
system.cpu0.itb.misses                              0                       # DTB misses
system.cpu0.itb.read_accesses                       0                       # DTB read accesses
system.cpu0.itb.read_hits                           0                       # DTB read hits
system.cpu0.itb.read_misses                         0                       # DTB read misses
system.cpu0.itb.write_accesses                      0                       # DTB write accesses
system.cpu0.itb.write_hits                          0                       # DTB write hits
system.cpu0.itb.write_misses                        0                       # DTB write misses
system.cpu0.memDep0.conflictingLoads         12084571                       # Number of conflicting loads.
system.cpu0.memDep0.conflictingStores         6482408                       # Number of conflicting stores.
system.cpu0.memDep0.insertedLoads           220579241                       # Number of loads inserted to the mem dependence unit.
system.cpu0.memDep0.insertedStores          100488928                       # Number of stores inserted to the mem dependence unit.
system.cpu0.misc_regfile_reads                    880                       # number of misc regfile reads
system.cpu0.misc_regfile_writes                    22                       # number of misc regfile writes
system.cpu0.numCycles                      1350840180                       # number of cpu cycles simulated
system.cpu0.numWorkItemsCompleted                   0                       # number of work items this cpu completed
system.cpu0.numWorkItemsStarted                     0                       # number of work items this cpu started
system.cpu0.quiesceCycles                     8908041                       # Total number of cycles that CPU has spent quiesced or waiting for an interrupt
system.cpu0.rename.BlockCycles              199062800                       # Number of cycles rename is blocking
system.cpu0.rename.CommittedMaps            399063941                       # Number of HB maps that are committed
system.cpu0.rename.IQFullEvents               7418779                       # Number of times rename has blocked due to IQ full
system.cpu0.rename.IdleCycles               414545577                       # Number of cycles rename is idle
system.cpu0.rename.LQFullEvents              14379358                       # Number of times rename has blocked due to LQ full
system.cpu0.rename.ROBFullEvents                22585                       # Number of times rename has blocked due to ROB full
system.cpu0.rename.RenameLookups            891053081                       # Number of register rename lookups that rename has made
system.cpu0.rename.RenamedInsts             720368678                       # Number of instructions processed by rename
system.cpu0.rename.RenamedOperands          460521734                       # Number of destination operands rename has renamed
system.cpu0.rename.RunCycles                503285308                       # Number of cycles rename is running
system.cpu0.rename.SQFullEvents              15698441                       # Number of times rename has blocked due to SQ full
system.cpu0.rename.SquashCycles               5533714                       # Number of cycles rename is squashing
system.cpu0.rename.UnblockCycles             37980588                       # Number of cycles rename is unblocking
system.cpu0.rename.UndoneMaps                61457725                       # Number of HB maps that are undone due to squashing
system.cpu0.rename.fp_rename_lookups               44                       # Number of floating rename lookups
system.cpu0.rename.int_rename_lookups       891053037                       # Number of integer rename lookups
system.cpu0.rename.serializeStallCycles         93419                       # count of cycles rename stalled for serializing inst
system.cpu0.rename.serializingInsts              2860                       # count of serializing insts renamed
system.cpu0.rename.skidInsts                 16982623                       # count of insts added to the skid buffer
system.cpu0.rename.tempSerializingInsts          2848                       # count of temporary serializing insts renamed
system.cpu0.rob.rob_reads                  1837261927                       # The number of ROB reads
system.cpu0.rob.rob_writes                 1438987186                       # The number of ROB writes
system.cpu0.timesIdled                       12087992                       # Number of times that the entire CPU went into an idle state and unscheduled itself
system.cpu0.workload.numSyscalls                  847                       # Number of system calls
system.cpu1.branchPred.BTBCorrect                   0                       # Number of correct BTB predictions (this stat may not work properly.
system.cpu1.branchPred.BTBHitPct            72.648985                       # BTB Hit Percentage
system.cpu1.branchPred.BTBHits                6731939                       # Number of BTB hits
system.cpu1.branchPred.BTBLookups             9266391                       # Number of BTB lookups
system.cpu1.branchPred.RASInCorrect                 0                       # Number of incorrect RAS predictions.
system.cpu1.branchPred.condIncorrect          1006650                       # Number of conditional branches incorrect
system.cpu1.branchPred.condPredicted         10062161                       # Number of conditional branches predicted
system.cpu1.branchPred.indirectHits            784372                       # Number of indirect target hits.
system.cpu1.branchPred.indirectLookups         947758                       # Number of indirect predictor lookups.
system.cpu1.branchPred.indirectMisses          163386                       # Number of indirect misses.
system.cpu1.branchPred.lookups               12371875                       # Number of BP lookups
system.cpu1.branchPred.usedRAS                      0                       # Number of times the RAS was used to get a target.
system.cpu1.branchPredindirectMispredicted        10133                       # Number of mispredicted indirect branches.
system.cpu1.commit.amos                       1017938                       # Number of atomic instructions committed
system.cpu1.commit.branchMispredicts           574274                       # The number of times a branch was mispredicted
system.cpu1.commit.branches                  10114930                       # Number of branches committed
system.cpu1.commit.bw_lim_events              2660176                       # number cycles where commit BW limit reached
system.cpu1.commit.commitNonSpecStalls        3054482                       # The number of times commit has been forced to stall to communicate backwards
system.cpu1.commit.commitSquashedInsts        6354245                       # The number of squashed insts skipped by commit
system.cpu1.commit.committedInsts            57392469                       # Number of instructions committed
system.cpu1.commit.committedOps              58410583                       # Number of ops (including micro ops) committed
system.cpu1.commit.committed_per_cycle::samples    240677195                       # Number of insts commited each cycle
system.cpu1.commit.committed_per_cycle::mean     0.242693                       # Number of insts commited each cycle
system.cpu1.commit.committed_per_cycle::stdev     1.052315                       # Number of insts commited each cycle
system.cpu1.commit.committed_per_cycle::underflows            0      0.00%      0.00% # Number of insts commited each cycle
system.cpu1.commit.committed_per_cycle::0    219428208     91.17%     91.17% # Number of insts commited each cycle
system.cpu1.commit.committed_per_cycle::1      9952878      4.14%     95.31% # Number of insts commited each cycle
system.cpu1.commit.committed_per_cycle::2      3791319      1.58%     96.88% # Number of insts commited each cycle
system.cpu1.commit.committed_per_cycle::3      2020581      0.84%     97.72% # Number of insts commited each cycle
system.cpu1.commit.committed_per_cycle::4      1346093      0.56%     98.28% # Number of insts commited each cycle
system.cpu1.commit.committed_per_cycle::5       878532      0.37%     98.65% # Number of insts commited each cycle
system.cpu1.commit.committed_per_cycle::6       440972      0.18%     98.83% # Number of insts commited each cycle
system.cpu1.commit.committed_per_cycle::7       158436      0.07%     98.89% # Number of insts commited each cycle
system.cpu1.commit.committed_per_cycle::8      2660176      1.11%    100.00% # Number of insts commited each cycle
system.cpu1.commit.committed_per_cycle::overflows            0      0.00%    100.00% # Number of insts commited each cycle
system.cpu1.commit.committed_per_cycle::min_value            0                       # Number of insts commited each cycle
system.cpu1.commit.committed_per_cycle::max_value            8                       # Number of insts commited each cycle
system.cpu1.commit.committed_per_cycle::total    240677195                       # Number of insts commited each cycle
system.cpu1.commit.fp_insts                        12                       # Number of committed floating point instructions.
system.cpu1.commit.function_calls             1443025                       # Number of function calls committed.
system.cpu1.commit.int_insts                 55974649                       # Number of committed integer instructions.
system.cpu1.commit.loads                     14461340                       # Number of loads committed
system.cpu1.commit.membars                    2036000                       # Number of memory barriers committed
system.cpu1.commit.op_class_0::No_OpClass      2036000      3.49%      3.49% # Class of committed instruction
system.cpu1.commit.op_class_0::IntAlu        34548302     59.15%     62.63% # Class of committed instruction
system.cpu1.commit.op_class_0::IntMult         248003      0.42%     63.06% # Class of committed instruction
system.cpu1.commit.op_class_0::IntDiv          493477      0.84%     63.90% # Class of committed instruction
system.cpu1.commit.op_class_0::FloatAdd             0      0.00%     63.90% # Class of committed instruction
system.cpu1.commit.op_class_0::FloatCmp             0      0.00%     63.90% # Class of committed instruction
system.cpu1.commit.op_class_0::FloatCvt             0      0.00%     63.90% # Class of committed instruction
system.cpu1.commit.op_class_0::FloatMult            0      0.00%     63.90% # Class of committed instruction
system.cpu1.commit.op_class_0::FloatMultAcc            0      0.00%     63.90% # Class of committed instruction
system.cpu1.commit.op_class_0::FloatDiv             0      0.00%     63.90% # Class of committed instruction
system.cpu1.commit.op_class_0::FloatMisc            0      0.00%     63.90% # Class of committed instruction
system.cpu1.commit.op_class_0::FloatSqrt            0      0.00%     63.90% # Class of committed instruction
system.cpu1.commit.op_class_0::SimdAdd              0      0.00%     63.90% # Class of committed instruction
system.cpu1.commit.op_class_0::SimdAddAcc            0      0.00%     63.90% # Class of committed instruction
system.cpu1.commit.op_class_0::SimdAlu              0      0.00%     63.90% # Class of committed instruction
system.cpu1.commit.op_class_0::SimdCmp              0      0.00%     63.90% # Class of committed instruction
system.cpu1.commit.op_class_0::SimdCvt              0      0.00%     63.90% # Class of committed instruction
system.cpu1.commit.op_class_0::SimdMisc             0      0.00%     63.90% # Class of committed instruction
system.cpu1.commit.op_class_0::SimdMult             0      0.00%     63.90% # Class of committed instruction
system.cpu1.commit.op_class_0::SimdMultAcc            0      0.00%     63.90% # Class of committed instruction
system.cpu1.commit.op_class_0::SimdShift            0      0.00%     63.90% # Class of committed instruction
system.cpu1.commit.op_class_0::SimdShiftAcc            0      0.00%     63.90% # Class of committed instruction
system.cpu1.commit.op_class_0::SimdDiv              0      0.00%     63.90% # Class of committed instruction
system.cpu1.commit.op_class_0::SimdSqrt             0      0.00%     63.90% # Class of committed instruction
system.cpu1.commit.op_class_0::SimdFloatAdd            0      0.00%     63.90% # Class of committed instruction
system.cpu1.commit.op_class_0::SimdFloatAlu            0      0.00%     63.90% # Class of committed instruction
system.cpu1.commit.op_class_0::SimdFloatCmp            0      0.00%     63.90% # Class of committed instruction
system.cpu1.commit.op_class_0::SimdFloatCvt            0      0.00%     63.90% # Class of committed instruction
system.cpu1.commit.op_class_0::SimdFloatDiv            0      0.00%     63.90% # Class of committed instruction
system.cpu1.commit.op_class_0::SimdFloatMisc            0      0.00%     63.90% # Class of committed instruction
system.cpu1.commit.op_class_0::SimdFloatMult            0      0.00%     63.90% # Class of committed instruction
system.cpu1.commit.op_class_0::SimdFloatMultAcc            0      0.00%     63.90% # Class of committed instruction
system.cpu1.commit.op_class_0::SimdFloatSqrt            0      0.00%     63.90% # Class of committed instruction
system.cpu1.commit.op_class_0::SimdReduceAdd            0      0.00%     63.90% # Class of committed instruction
system.cpu1.commit.op_class_0::SimdReduceAlu            0      0.00%     63.90% # Class of committed instruction
system.cpu1.commit.op_class_0::SimdReduceCmp            0      0.00%     63.90% # Class of committed instruction
system.cpu1.commit.op_class_0::SimdFloatReduceAdd            0      0.00%     63.90% # Class of committed instruction
system.cpu1.commit.op_class_0::SimdFloatReduceCmp            0      0.00%     63.90% # Class of committed instruction
system.cpu1.commit.op_class_0::SimdAes              0      0.00%     63.90% # Class of committed instruction
system.cpu1.commit.op_class_0::SimdAesMix            0      0.00%     63.90% # Class of committed instruction
system.cpu1.commit.op_class_0::SimdSha1Hash            0      0.00%     63.90% # Class of committed instruction
system.cpu1.commit.op_class_0::SimdSha1Hash2            0      0.00%     63.90% # Class of committed instruction
system.cpu1.commit.op_class_0::SimdSha256Hash            0      0.00%     63.90% # Class of committed instruction
system.cpu1.commit.op_class_0::SimdSha256Hash2            0      0.00%     63.90% # Class of committed instruction
system.cpu1.commit.op_class_0::SimdShaSigma2            0      0.00%     63.90% # Class of committed instruction
system.cpu1.commit.op_class_0::SimdShaSigma3            0      0.00%     63.90% # Class of committed instruction
system.cpu1.commit.op_class_0::SimdPredAlu            0      0.00%     63.90% # Class of committed instruction
system.cpu1.commit.op_class_0::MemRead       15479278     26.50%     90.40% # Class of committed instruction
system.cpu1.commit.op_class_0::MemWrite       5605511      9.60%    100.00% # Class of committed instruction
system.cpu1.commit.op_class_0::FloatMemRead            0      0.00%    100.00% # Class of committed instruction
system.cpu1.commit.op_class_0::FloatMemWrite           12      0.00%    100.00% # Class of committed instruction
system.cpu1.commit.op_class_0::IprAccess            0      0.00%    100.00% # Class of committed instruction
system.cpu1.commit.op_class_0::InstPrefetch            0      0.00%    100.00% # Class of committed instruction
system.cpu1.commit.op_class_0::total         58410583                       # Class of committed instruction
system.cpu1.commit.refs                      21084801                       # Number of memory references committed
system.cpu1.commit.swp_count                        0                       # Number of s/w prefetches committed
system.cpu1.commit.vec_insts                        0                       # Number of committed Vector instructions.
system.cpu1.committedInsts                   57392469                       # Number of Instructions Simulated
system.cpu1.committedOps                     58410583                       # Number of Ops (including micro ops) Simulated
system.cpu1.cpi                              4.231488                       # CPI: Cycles Per Instruction
system.cpu1.cpi_total                        4.231488                       # CPI: Total CPI of All Threads
system.cpu1.decode.BlockedCycles            200507506                       # Number of cycles decode is blocked
system.cpu1.decode.BranchMispred               439657                       # Number of times decode detected a branch misprediction
system.cpu1.decode.BranchResolved             6347826                       # Number of times decode resolved a branch
system.cpu1.decode.DecodedInsts              67810756                       # Number of instructions handled by decode
system.cpu1.decode.IdleCycles                 8821259                       # Number of cycles decode is idle
system.cpu1.decode.RunCycles                 29335940                       # Number of cycles decode is running
system.cpu1.decode.SquashCycles                574579                       # Number of cycles decode is squashing
system.cpu1.decode.SquashedInsts               881452                       # Number of squashed instructions handled by decode
system.cpu1.decode.UnblockCycles              2612633                       # Number of cycles decode is unblocking
system.cpu1.dtb.accesses                            0                       # DTB accesses
system.cpu1.dtb.hits                                0                       # DTB hits
system.cpu1.dtb.misses                              0                       # DTB misses
system.cpu1.dtb.read_accesses                       0                       # DTB read accesses
system.cpu1.dtb.read_hits                           0                       # DTB read hits
system.cpu1.dtb.read_misses                         0                       # DTB read misses
system.cpu1.dtb.write_accesses                      0                       # DTB write accesses
system.cpu1.dtb.write_hits                          0                       # DTB write hits
system.cpu1.dtb.write_misses                        0                       # DTB write misses
system.cpu1.fetch.Branches                   12371875                       # Number of branches that fetch encountered
system.cpu1.fetch.CacheLines                  8871911                       # Number of cache lines fetched
system.cpu1.fetch.Cycles                    230805515                       # Number of cycles fetch has run and was not squashing or blocked
system.cpu1.fetch.IcacheSquashes                94122                       # Number of outstanding Icache misses that were squashed
system.cpu1.fetch.Insts                      70000346                       # Number of instructions fetch has processed
system.cpu1.fetch.MiscStallCycles                   1                       # Number of cycles fetch has spent waiting on interrupts, or bad addresses, or out of MSHRs
system.cpu1.fetch.SquashCycles                2013910                       # Number of cycles fetch has spent squashing
system.cpu1.fetch.branchRate                 0.050943                       # Number of branch fetches per cycle
system.cpu1.fetch.icacheStallCycles          10039446                       # Number of cycles fetch is stalled on an Icache miss
system.cpu1.fetch.predictedBranches           7516311                       # Number of branches that fetch has predicted taken
system.cpu1.fetch.rate                       0.288239                       # Number of inst fetches per cycle
system.cpu1.fetch.rateDist::samples         241851917                       # Number of instructions fetched each cycle (Total)
system.cpu1.fetch.rateDist::mean             0.293646                       # Number of instructions fetched each cycle (Total)
system.cpu1.fetch.rateDist::stdev            0.751213                       # Number of instructions fetched each cycle (Total)
system.cpu1.fetch.rateDist::underflows              0      0.00%      0.00% # Number of instructions fetched each cycle (Total)
system.cpu1.fetch.rateDist::0               197078446     81.49%     81.49% # Number of instructions fetched each cycle (Total)
system.cpu1.fetch.rateDist::1                28894665     11.95%     93.43% # Number of instructions fetched each cycle (Total)
system.cpu1.fetch.rateDist::2                 9773063      4.04%     97.48% # Number of instructions fetched each cycle (Total)
system.cpu1.fetch.rateDist::3                 3673903      1.52%     98.99% # Number of instructions fetched each cycle (Total)
system.cpu1.fetch.rateDist::4                 1059495      0.44%     99.43% # Number of instructions fetched each cycle (Total)
system.cpu1.fetch.rateDist::5                  916228      0.38%     99.81% # Number of instructions fetched each cycle (Total)
system.cpu1.fetch.rateDist::6                  455875      0.19%    100.00% # Number of instructions fetched each cycle (Total)
system.cpu1.fetch.rateDist::7                       9      0.00%    100.00% # Number of instructions fetched each cycle (Total)
system.cpu1.fetch.rateDist::8                     233      0.00%    100.00% # Number of instructions fetched each cycle (Total)
system.cpu1.fetch.rateDist::overflows               0      0.00%    100.00% # Number of instructions fetched each cycle (Total)
system.cpu1.fetch.rateDist::min_value               0                       # Number of instructions fetched each cycle (Total)
system.cpu1.fetch.rateDist::max_value               8                       # Number of instructions fetched each cycle (Total)
system.cpu1.fetch.rateDist::total           241851917                       # Number of instructions fetched each cycle (Total)
system.cpu1.fp_regfile_reads                       12                       # number of floating regfile reads
system.cpu1.idleCycles                        1003613                       # Total number of cycles that the CPU has spent unscheduled due to idling
system.cpu1.iew.branchMispredicts              611141                       # Number of branch mispredicts detected at execute
system.cpu1.iew.exec_branches                10942901                       # Number of branches executed
system.cpu1.iew.exec_nop                            0                       # number of nop insts executed
system.cpu1.iew.exec_rate                    0.257361                       # Inst execution rate
system.cpu1.iew.exec_refs                    22361911                       # number of memory reference insts executed
system.cpu1.iew.exec_stores                   6788661                       # Number of stores executed
system.cpu1.iew.exec_swp                            0                       # number of swp insts executed
system.cpu1.iew.iewBlockCycles              166700557                       # Number of cycles IEW is blocking
system.cpu1.iew.iewDispLoadInsts             15676098                       # Number of dispatched load instructions
system.cpu1.iew.iewDispNonSpecInsts           1018618                       # Number of dispatched non-speculative instructions
system.cpu1.iew.iewDispSquashedInsts           768950                       # Number of squashed instructions skipped by dispatch
system.cpu1.iew.iewDispStoreInsts             7003621                       # Number of dispatched store instructions
system.cpu1.iew.iewDispatchedInsts           64755910                       # Number of instructions dispatched to IQ
system.cpu1.iew.iewExecLoadInsts             15573250                       # Number of load instructions executed
system.cpu1.iew.iewExecSquashedInsts           659253                       # Number of squashed instructions skipped in execute
system.cpu1.iew.iewExecutedInsts             62501519                       # Number of executed instructions
system.cpu1.iew.iewIQFullEvents                783955                       # Number of times the IQ has become full, causing a stall
system.cpu1.iew.iewIdleCycles                       0                       # Number of cycles IEW is idle
system.cpu1.iew.iewLSQFullEvents              3731386                       # Number of times the LSQ has become full, causing a stall
system.cpu1.iew.iewSquashCycles                574579                       # Number of cycles IEW is squashing
system.cpu1.iew.iewUnblockCycles              5833756                       # Number of cycles IEW is unblocking
system.cpu1.iew.lsq.thread0.blockedLoads            0                       # Number of blocked loads due to partial load-store forwarding
system.cpu1.iew.lsq.thread0.cacheBlocked        22201                       # Number of times an access to memory failed due to the cache being blocked
system.cpu1.iew.lsq.thread0.forwLoads          758331                       # Number of loads that had data forwarded from stores
system.cpu1.iew.lsq.thread0.ignoredResponses         6070                       # Number of memory responses ignored because the instruction is squashed
system.cpu1.iew.lsq.thread0.invAddrLoads            0                       # Number of loads ignored due to an invalid address
system.cpu1.iew.lsq.thread0.invAddrSwpfs            0                       # Number of software prefetches ignored due to an invalid address
system.cpu1.iew.lsq.thread0.memOrderViolation          301                       # Number of memory ordering violations
system.cpu1.iew.lsq.thread0.rescheduledLoads          337                       # Number of loads that were rescheduled
system.cpu1.iew.lsq.thread0.squashedLoads      1214758                       # Number of loads squashed
system.cpu1.iew.lsq.thread0.squashedStores       380160                       # Number of stores squashed
system.cpu1.iew.memOrderViolationEvents           301                       # Number of memory order violations
system.cpu1.iew.predictedNotTakenIncorrect        78130                       # Number of branches that were predicted not taken incorrectly
system.cpu1.iew.predictedTakenIncorrect        533011                       # Number of branches that were predicted taken incorrectly
system.cpu1.iew.wb_consumers                 36886666                       # num instructions consuming a value
system.cpu1.iew.wb_count                     62093992                       # cumulative count of insts written-back
system.cpu1.iew.wb_fanout                    0.821847                       # average fanout of values written-back
system.cpu1.iew.wb_producers                 30315206                       # num instructions producing a value
system.cpu1.iew.wb_rate                      0.255683                       # insts written-back per cycle
system.cpu1.iew.wb_sent                      62119091                       # cumulative count of insts sent to commit
system.cpu1.int_regfile_reads                79673316                       # number of integer regfile reads
system.cpu1.int_regfile_writes               44117120                       # number of integer regfile writes
system.cpu1.ipc                              0.236324                       # IPC: Instructions Per Cycle
system.cpu1.ipc_total                        0.236324                       # IPC: Total IPC of All Threads
system.cpu1.iq.FU_type_0::No_OpClass          2036099      3.22%      3.22% # Type of FU issued
system.cpu1.iq.FU_type_0::IntAlu             37884178     59.98%     63.20% # Type of FU issued
system.cpu1.iq.FU_type_0::IntMult              248052      0.39%     63.60% # Type of FU issued
system.cpu1.iq.FU_type_0::IntDiv               493574      0.78%     64.38% # Type of FU issued
system.cpu1.iq.FU_type_0::FloatAdd                  0      0.00%     64.38% # Type of FU issued
system.cpu1.iq.FU_type_0::FloatCmp                  0      0.00%     64.38% # Type of FU issued
system.cpu1.iq.FU_type_0::FloatCvt                  0      0.00%     64.38% # Type of FU issued
system.cpu1.iq.FU_type_0::FloatMult                 0      0.00%     64.38% # Type of FU issued
system.cpu1.iq.FU_type_0::FloatMultAcc              0      0.00%     64.38% # Type of FU issued
system.cpu1.iq.FU_type_0::FloatDiv                  0      0.00%     64.38% # Type of FU issued
system.cpu1.iq.FU_type_0::FloatMisc                 0      0.00%     64.38% # Type of FU issued
system.cpu1.iq.FU_type_0::FloatSqrt                 0      0.00%     64.38% # Type of FU issued
system.cpu1.iq.FU_type_0::SimdAdd                   0      0.00%     64.38% # Type of FU issued
system.cpu1.iq.FU_type_0::SimdAddAcc                0      0.00%     64.38% # Type of FU issued
system.cpu1.iq.FU_type_0::SimdAlu                   0      0.00%     64.38% # Type of FU issued
system.cpu1.iq.FU_type_0::SimdCmp                   0      0.00%     64.38% # Type of FU issued
system.cpu1.iq.FU_type_0::SimdCvt                   0      0.00%     64.38% # Type of FU issued
system.cpu1.iq.FU_type_0::SimdMisc                  0      0.00%     64.38% # Type of FU issued
system.cpu1.iq.FU_type_0::SimdMult                  0      0.00%     64.38% # Type of FU issued
system.cpu1.iq.FU_type_0::SimdMultAcc               0      0.00%     64.38% # Type of FU issued
system.cpu1.iq.FU_type_0::SimdShift                 0      0.00%     64.38% # Type of FU issued
system.cpu1.iq.FU_type_0::SimdShiftAcc              0      0.00%     64.38% # Type of FU issued
system.cpu1.iq.FU_type_0::SimdDiv                   0      0.00%     64.38% # Type of FU issued
system.cpu1.iq.FU_type_0::SimdSqrt                  0      0.00%     64.38% # Type of FU issued
system.cpu1.iq.FU_type_0::SimdFloatAdd              0      0.00%     64.38% # Type of FU issued
system.cpu1.iq.FU_type_0::SimdFloatAlu              0      0.00%     64.38% # Type of FU issued
system.cpu1.iq.FU_type_0::SimdFloatCmp              0      0.00%     64.38% # Type of FU issued
system.cpu1.iq.FU_type_0::SimdFloatCvt              0      0.00%     64.38% # Type of FU issued
system.cpu1.iq.FU_type_0::SimdFloatDiv              0      0.00%     64.38% # Type of FU issued
system.cpu1.iq.FU_type_0::SimdFloatMisc             0      0.00%     64.38% # Type of FU issued
system.cpu1.iq.FU_type_0::SimdFloatMult             0      0.00%     64.38% # Type of FU issued
system.cpu1.iq.FU_type_0::SimdFloatMultAcc            0      0.00%     64.38% # Type of FU issued
system.cpu1.iq.FU_type_0::SimdFloatSqrt             0      0.00%     64.38% # Type of FU issued
system.cpu1.iq.FU_type_0::SimdReduceAdd             0      0.00%     64.38% # Type of FU issued
system.cpu1.iq.FU_type_0::SimdReduceAlu             0      0.00%     64.38% # Type of FU issued
system.cpu1.iq.FU_type_0::SimdReduceCmp             0      0.00%     64.38% # Type of FU issued
system.cpu1.iq.FU_type_0::SimdFloatReduceAdd            0      0.00%     64.38% # Type of FU issued
system.cpu1.iq.FU_type_0::SimdFloatReduceCmp            0      0.00%     64.38% # Type of FU issued
system.cpu1.iq.FU_type_0::SimdAes                   0      0.00%     64.38% # Type of FU issued
system.cpu1.iq.FU_type_0::SimdAesMix                0      0.00%     64.38% # Type of FU issued
system.cpu1.iq.FU_type_0::SimdSha1Hash              0      0.00%     64.38% # Type of FU issued
system.cpu1.iq.FU_type_0::SimdSha1Hash2             0      0.00%     64.38% # Type of FU issued
system.cpu1.iq.FU_type_0::SimdSha256Hash            0      0.00%     64.38% # Type of FU issued
system.cpu1.iq.FU_type_0::SimdSha256Hash2            0      0.00%     64.38% # Type of FU issued
system.cpu1.iq.FU_type_0::SimdShaSigma2             0      0.00%     64.38% # Type of FU issued
system.cpu1.iq.FU_type_0::SimdShaSigma3             0      0.00%     64.38% # Type of FU issued
system.cpu1.iq.FU_type_0::SimdPredAlu               0      0.00%     64.38% # Type of FU issued
system.cpu1.iq.FU_type_0::MemRead            16705887     26.45%     90.83% # Type of FU issued
system.cpu1.iq.FU_type_0::MemWrite            5792970      9.17%    100.00% # Type of FU issued
system.cpu1.iq.FU_type_0::FloatMemRead              0      0.00%    100.00% # Type of FU issued
system.cpu1.iq.FU_type_0::FloatMemWrite            12      0.00%    100.00% # Type of FU issued
system.cpu1.iq.FU_type_0::IprAccess                 0      0.00%    100.00% # Type of FU issued
system.cpu1.iq.FU_type_0::InstPrefetch              0      0.00%    100.00% # Type of FU issued
system.cpu1.iq.FU_type_0::total              63160772                       # Type of FU issued
system.cpu1.iq.fp_alu_accesses                     16                       # Number of floating point alu accesses
system.cpu1.iq.fp_inst_queue_reads                 28                       # Number of floating instruction queue reads
system.cpu1.iq.fp_inst_queue_wakeup_accesses           12                       # Number of floating instruction queue wakeup accesses
system.cpu1.iq.fp_inst_queue_writes                12                       # Number of floating instruction queue writes
system.cpu1.iq.fu_busy_cnt                    1933593                       # FU busy when requested
system.cpu1.iq.fu_busy_rate                  0.030614                       # FU busy rate (busy events/executed inst)
system.cpu1.iq.fu_full::No_OpClass                  0      0.00%      0.00% # attempts to use FU when none available
system.cpu1.iq.fu_full::IntAlu                 248959     12.88%     12.88% # attempts to use FU when none available
system.cpu1.iq.fu_full::IntMult                  4753      0.25%     13.12% # attempts to use FU when none available
system.cpu1.iq.fu_full::IntDiv                 446464     23.09%     36.21% # attempts to use FU when none available
system.cpu1.iq.fu_full::FloatAdd                    0      0.00%     36.21% # attempts to use FU when none available
system.cpu1.iq.fu_full::FloatCmp                    0      0.00%     36.21% # attempts to use FU when none available
system.cpu1.iq.fu_full::FloatCvt                    0      0.00%     36.21% # attempts to use FU when none available
system.cpu1.iq.fu_full::FloatMult                   0      0.00%     36.21% # attempts to use FU when none available
system.cpu1.iq.fu_full::FloatMultAcc                0      0.00%     36.21% # attempts to use FU when none available
system.cpu1.iq.fu_full::FloatDiv                    0      0.00%     36.21% # attempts to use FU when none available
system.cpu1.iq.fu_full::FloatMisc                   0      0.00%     36.21% # attempts to use FU when none available
system.cpu1.iq.fu_full::FloatSqrt                   0      0.00%     36.21% # attempts to use FU when none available
system.cpu1.iq.fu_full::SimdAdd                     0      0.00%     36.21% # attempts to use FU when none available
system.cpu1.iq.fu_full::SimdAddAcc                  0      0.00%     36.21% # attempts to use FU when none available
system.cpu1.iq.fu_full::SimdAlu                     0      0.00%     36.21% # attempts to use FU when none available
system.cpu1.iq.fu_full::SimdCmp                     0      0.00%     36.21% # attempts to use FU when none available
system.cpu1.iq.fu_full::SimdCvt                     0      0.00%     36.21% # attempts to use FU when none available
system.cpu1.iq.fu_full::SimdMisc                    0      0.00%     36.21% # attempts to use FU when none available
system.cpu1.iq.fu_full::SimdMult                    0      0.00%     36.21% # attempts to use FU when none available
system.cpu1.iq.fu_full::SimdMultAcc                 0      0.00%     36.21% # attempts to use FU when none available
system.cpu1.iq.fu_full::SimdShift                   0      0.00%     36.21% # attempts to use FU when none available
system.cpu1.iq.fu_full::SimdShiftAcc                0      0.00%     36.21% # attempts to use FU when none available
system.cpu1.iq.fu_full::SimdDiv                     0      0.00%     36.21% # attempts to use FU when none available
system.cpu1.iq.fu_full::SimdSqrt                    0      0.00%     36.21% # attempts to use FU when none available
system.cpu1.iq.fu_full::SimdFloatAdd                0      0.00%     36.21% # attempts to use FU when none available
system.cpu1.iq.fu_full::SimdFloatAlu                0      0.00%     36.21% # attempts to use FU when none available
system.cpu1.iq.fu_full::SimdFloatCmp                0      0.00%     36.21% # attempts to use FU when none available
system.cpu1.iq.fu_full::SimdFloatCvt                0      0.00%     36.21% # attempts to use FU when none available
system.cpu1.iq.fu_full::SimdFloatDiv                0      0.00%     36.21% # attempts to use FU when none available
system.cpu1.iq.fu_full::SimdFloatMisc               0      0.00%     36.21% # attempts to use FU when none available
system.cpu1.iq.fu_full::SimdFloatMult               0      0.00%     36.21% # attempts to use FU when none available
system.cpu1.iq.fu_full::SimdFloatMultAcc            0      0.00%     36.21% # attempts to use FU when none available
system.cpu1.iq.fu_full::SimdFloatSqrt               0      0.00%     36.21% # attempts to use FU when none available
system.cpu1.iq.fu_full::SimdReduceAdd               0      0.00%     36.21% # attempts to use FU when none available
system.cpu1.iq.fu_full::SimdReduceAlu               0      0.00%     36.21% # attempts to use FU when none available
system.cpu1.iq.fu_full::SimdReduceCmp               0      0.00%     36.21% # attempts to use FU when none available
system.cpu1.iq.fu_full::SimdFloatReduceAdd            0      0.00%     36.21% # attempts to use FU when none available
system.cpu1.iq.fu_full::SimdFloatReduceCmp            0      0.00%     36.21% # attempts to use FU when none available
system.cpu1.iq.fu_full::SimdAes                     0      0.00%     36.21% # attempts to use FU when none available
system.cpu1.iq.fu_full::SimdAesMix                  0      0.00%     36.21% # attempts to use FU when none available
system.cpu1.iq.fu_full::SimdSha1Hash                0      0.00%     36.21% # attempts to use FU when none available
system.cpu1.iq.fu_full::SimdSha1Hash2               0      0.00%     36.21% # attempts to use FU when none available
system.cpu1.iq.fu_full::SimdSha256Hash              0      0.00%     36.21% # attempts to use FU when none available
system.cpu1.iq.fu_full::SimdSha256Hash2             0      0.00%     36.21% # attempts to use FU when none available
system.cpu1.iq.fu_full::SimdShaSigma2               0      0.00%     36.21% # attempts to use FU when none available
system.cpu1.iq.fu_full::SimdShaSigma3               0      0.00%     36.21% # attempts to use FU when none available
system.cpu1.iq.fu_full::SimdPredAlu                 0      0.00%     36.21% # attempts to use FU when none available
system.cpu1.iq.fu_full::MemRead               1079668     55.84%     92.05% # attempts to use FU when none available
system.cpu1.iq.fu_full::MemWrite               153745      7.95%    100.00% # attempts to use FU when none available
[...]
system.cpu1.dcache.WriteReq_misses::total      2714801                       # number of WriteReq misses
system.cpu1.dcache.WriteReq_miss_latency::.cpu1.data 178041619522                       # number of WriteReq miss cycles
system.cpu1.dcache.WriteReq_miss_latency::total 178041619522                       # number of WriteReq miss cycles
system.cpu1.dcache.WriteReq_accesses::.cpu1.data     10083400                       # number of WriteReq accesses(hits+misses)
system.cpu1.dcache.WriteReq_accesses::total     10083400                       # number of WriteReq accesses(hits+misses)
system.cpu1.dcache.WriteReq_miss_rate::.cpu1.data     0.269235                       # miss rate for WriteReq accesses
system.cpu1.dcache.WriteReq_miss_rate::total     0.269235                       # miss rate for WriteReq accesses
system.cpu1.dcache.WriteReq_avg_miss_latency::.cpu1.data 65581.830684                       # average WriteReq miss latency
system.cpu1.dcache.WriteReq_avg_miss_latency::total 65581.830684                       # average WriteReq miss latency
system.cpu1.dcache.WriteReq_mshr_hits::.cpu1.data      1700037                       # number of WriteReq MSHR hits
system.cpu1.dcache.WriteReq_mshr_hits::total      1700037                       # number of WriteReq MSHR hits
system.cpu1.dcache.WriteReq_mshr_misses::.cpu1.data      1014764                       # number of WriteReq MSHR misses
system.cpu1.dcache.WriteReq_mshr_misses::total      1014764                       # number of WriteReq MSHR misses
system.cpu1.dcache.WriteReq_mshr_miss_latency::.cpu1.data  77562063911                       # number of WriteReq MSHR miss cycles
system.cpu1.dcache.WriteReq_mshr_miss_latency::total  77562063911                       # number of WriteReq MSHR miss cycles
system.cpu1.dcache.WriteReq_mshr_miss_rate::.cpu1.data     0.100637                       # mshr miss rate for WriteReq accesses
system.cpu1.dcache.WriteReq_mshr_miss_rate::total     0.100637                       # mshr miss rate for WriteReq accesses
system.cpu1.dcache.WriteReq_avg_mshr_miss_latency::.cpu1.data 76433.598266                       # average WriteReq mshr miss latency
system.cpu1.dcache.WriteReq_avg_mshr_miss_latency::total 76433.598266                       # average WriteReq mshr miss latency
system.cpu1.dcache.LoadLockedReq_hits::.cpu1.data       547697                       # number of LoadLockedReq hits
system.cpu1.dcache.LoadLockedReq_hits::total       547697                       # number of LoadLockedReq hits
system.cpu1.dcache.LoadLockedReq_misses::.cpu1.data        81131                       # number of LoadLockedReq misses
system.cpu1.dcache.LoadLockedReq_misses::total        81131                       # number of LoadLockedReq misses
system.cpu1.dcache.LoadLockedReq_miss_latency::.cpu1.data   4260209000                       # number of LoadLockedReq miss cycles
system.cpu1.dcache.LoadLockedReq_miss_latency::total   4260209000                       # number of LoadLockedReq miss cycles
system.cpu1.dcache.LoadLockedReq_accesses::.cpu1.data       628828                       # number of LoadLockedReq accesses(hits+misses)
system.cpu1.dcache.LoadLockedReq_accesses::total       628828                       # number of LoadLockedReq accesses(hits+misses)
system.cpu1.dcache.LoadLockedReq_miss_rate::.cpu1.data     0.129019                       # miss rate for LoadLockedReq accesses
system.cpu1.dcache.LoadLockedReq_miss_rate::total     0.129019                       # miss rate for LoadLockedReq accesses
system.cpu1.dcache.LoadLockedReq_avg_miss_latency::.cpu1.data 52510.248857                       # average LoadLockedReq miss latency
system.cpu1.dcache.LoadLockedReq_avg_miss_latency::total 52510.248857                       # average LoadLockedReq miss latency
system.cpu1.dcache.LoadLockedReq_mshr_hits::.cpu1.data        41814                       # number of LoadLockedReq MSHR hits
system.cpu1.dcache.LoadLockedReq_mshr_hits::total        41814                       # number of LoadLockedReq MSHR hits
system.cpu1.dcache.LoadLockedReq_mshr_misses::.cpu1.data        39317                       # number of LoadLockedReq MSHR misses
system.cpu1.dcache.LoadLockedReq_mshr_misses::total        39317                       # number of LoadLockedReq MSHR misses
system.cpu1.dcache.LoadLockedReq_mshr_miss_latency::.cpu1.data   2376670500                       # number of LoadLockedReq MSHR miss cycles
system.cpu1.dcache.LoadLockedReq_mshr_miss_latency::total   2376670500                       # number of LoadLockedReq MSHR miss cycles
system.cpu1.dcache.LoadLockedReq_mshr_miss_rate::.cpu1.data     0.062524                       # mshr miss rate for LoadLockedReq accesses
system.cpu1.dcache.LoadLockedReq_mshr_miss_rate::total     0.062524                       # mshr miss rate for LoadLockedReq accesses
system.cpu1.dcache.LoadLockedReq_avg_mshr_miss_latency::.cpu1.data 60448.927945                       # average LoadLockedReq mshr miss latency
system.cpu1.dcache.LoadLockedReq_avg_mshr_miss_latency::total 60448.927945                       # average LoadLockedReq mshr miss latency
system.cpu1.dcache.StoreCondReq_hits::.cpu1.data       532477                       # number of StoreCondReq hits
system.cpu1.dcache.StoreCondReq_hits::total       532477                       # number of StoreCondReq hits
system.cpu1.dcache.StoreCondReq_misses::.cpu1.data        47889                       # number of StoreCondReq misses
system.cpu1.dcache.StoreCondReq_misses::total        47889                       # number of StoreCondReq misses
system.cpu1.dcache.StoreCondReq_miss_latency::.cpu1.data    376685000                       # number of StoreCondReq miss cycles
system.cpu1.dcache.StoreCondReq_miss_latency::total    376685000                       # number of StoreCondReq miss cycles
system.cpu1.dcache.StoreCondReq_accesses::.cpu1.data       580366                       # number of StoreCondReq accesses(hits+misses)
system.cpu1.dcache.StoreCondReq_accesses::total       580366                       # number of StoreCondReq accesses(hits+misses)
system.cpu1.dcache.StoreCondReq_miss_rate::.cpu1.data     0.082515                       # miss rate for StoreCondReq accesses
system.cpu1.dcache.StoreCondReq_miss_rate::total     0.082515                       # miss rate for StoreCondReq accesses
system.cpu1.dcache.StoreCondReq_avg_miss_latency::.cpu1.data  7865.793815                       # average StoreCondReq miss latency
system.cpu1.dcache.StoreCondReq_avg_miss_latency::total  7865.793815                       # average StoreCondReq miss latency
system.cpu1.dcache.StoreCondReq_mshr_misses::.cpu1.data        47869                       # number of StoreCondReq MSHR misses
system.cpu1.dcache.StoreCondReq_mshr_misses::total        47869                       # number of StoreCondReq MSHR misses
system.cpu1.dcache.StoreCondReq_mshr_miss_latency::.cpu1.data    330533000                       # number of StoreCondReq MSHR miss cycles
system.cpu1.dcache.StoreCondReq_mshr_miss_latency::total    330533000                       # number of StoreCondReq MSHR miss cycles
system.cpu1.dcache.StoreCondReq_mshr_miss_rate::.cpu1.data     0.082481                       # mshr miss rate for StoreCondReq accesses
system.cpu1.dcache.StoreCondReq_mshr_miss_rate::total     0.082481                       # mshr miss rate for StoreCondReq accesses
system.cpu1.dcache.StoreCondReq_avg_mshr_miss_latency::.cpu1.data  6904.948923                       # average StoreCondReq mshr miss latency
system.cpu1.dcache.StoreCondReq_avg_mshr_miss_latency::total  6904.948923                       # average StoreCondReq mshr miss latency
system.cpu1.dcache.StoreCondFailReq_miss_latency::.cpu1.data     26214000                       # number of StoreCondFailReq miss cycles
system.cpu1.dcache.StoreCondFailReq_miss_latency::total     26214000                       # number of StoreCondFailReq miss cycles
system.cpu1.dcache.StoreCondFailReq_avg_miss_latency::.cpu1.data          inf                       # average StoreCondFailReq miss latency
system.cpu1.dcache.StoreCondFailReq_avg_miss_latency::total          inf                       # average StoreCondFailReq miss latency
system.cpu1.dcache.StoreCondFailReq_mshr_miss_latency::.cpu1.data     24497000                       # number of StoreCondFailReq MSHR miss cycles
system.cpu1.dcache.StoreCondFailReq_mshr_miss_latency::total     24497000                       # number of StoreCondFailReq MSHR miss cycles
system.cpu1.dcache.StoreCondFailReq_avg_mshr_miss_latency::.cpu1.data          inf                       # average StoreCondFailReq mshr miss latency
system.cpu1.dcache.StoreCondFailReq_avg_mshr_miss_latency::total          inf                       # average StoreCondFailReq mshr miss latency
system.cpu1.dcache.SwapReq_hits::.cpu1.data       112548                       # number of SwapReq hits
system.cpu1.dcache.SwapReq_hits::total         112548                       # number of SwapReq hits
system.cpu1.dcache.SwapReq_misses::.cpu1.data        47878                       # number of SwapReq misses
system.cpu1.dcache.SwapReq_misses::total        47878                       # number of SwapReq misses
system.cpu1.dcache.SwapReq_miss_latency::.cpu1.data    732949978                       # number of SwapReq miss cycles
system.cpu1.dcache.SwapReq_miss_latency::total    732949978                       # number of SwapReq miss cycles
system.cpu1.dcache.SwapReq_accesses::.cpu1.data       160426                       # number of SwapReq accesses(hits+misses)
system.cpu1.dcache.SwapReq_accesses::total       160426                       # number of SwapReq accesses(hits+misses)
system.cpu1.dcache.SwapReq_miss_rate::.cpu1.data     0.298443                       # miss rate for SwapReq accesses
system.cpu1.dcache.SwapReq_miss_rate::total     0.298443                       # miss rate for SwapReq accesses
system.cpu1.dcache.SwapReq_avg_miss_latency::.cpu1.data 15308.700823                       # average SwapReq miss latency
system.cpu1.dcache.SwapReq_avg_miss_latency::total 15308.700823                       # average SwapReq miss latency
system.cpu1.dcache.SwapReq_mshr_hits::.cpu1.data          120                       # number of SwapReq MSHR hits
system.cpu1.dcache.SwapReq_mshr_hits::total          120                       # number of SwapReq MSHR hits
system.cpu1.dcache.SwapReq_mshr_misses::.cpu1.data        47758                       # number of SwapReq MSHR misses
system.cpu1.dcache.SwapReq_mshr_misses::total        47758                       # number of SwapReq MSHR misses
system.cpu1.dcache.SwapReq_mshr_miss_latency::.cpu1.data    682296978                       # number of SwapReq MSHR miss cycles
system.cpu1.dcache.SwapReq_mshr_miss_latency::total    682296978                       # number of SwapReq MSHR miss cycles
system.cpu1.dcache.SwapReq_mshr_miss_rate::.cpu1.data     0.297695                       # mshr miss rate for SwapReq accesses
system.cpu1.dcache.SwapReq_mshr_miss_rate::total     0.297695                       # mshr miss rate for SwapReq accesses
system.cpu1.dcache.SwapReq_avg_mshr_miss_latency::.cpu1.data 14286.548390                       # average SwapReq mshr miss latency
system.cpu1.dcache.SwapReq_avg_mshr_miss_latency::total 14286.548390                       # average SwapReq mshr miss latency
system.cpu1.dcache.tags.pwrStateResidencyTicks::UNDEFINED 677494245000                       # Cumulative time (in ticks) in various power states
system.cpu1.dcache.tags.tagsinuse           31.746534                       # Cycle average of tags in use
system.cpu1.dcache.tags.total_refs           49141088                       # Total number of references to valid blocks.
system.cpu1.dcache.tags.sampled_refs          7688793                       # Sample count of references to valid blocks.
system.cpu1.dcache.tags.avg_refs             6.391262                       # Average number of references to valid blocks.
system.cpu1.dcache.tags.warmup_cycle                0                       # Cycle when the warmup percentage was hit.
system.cpu1.dcache.tags.occ_blocks::.cpu1.data    31.746534                       # Average occupied blocks per requestor
system.cpu1.dcache.tags.occ_percent::.cpu1.data     0.992079                       # Average percentage of cache occupancy
system.cpu1.dcache.tags.occ_percent::total     0.992079                       # Average percentage of cache occupancy
system.cpu1.dcache.tags.occ_task_id_blocks::1024           29                       # Occupied blocks per task id
system.cpu1.dcache.tags.age_task_id_blocks_1024::1            5                       # Occupied blocks per task id
system.cpu1.dcache.tags.age_task_id_blocks_1024::2           24                       # Occupied blocks per task id
system.cpu1.dcache.tags.occ_task_id_percent::1024     0.906250                       # Percentage of cache occupancy per task id
system.cpu1.dcache.tags.tag_accesses        124025038                       # Number of tag accesses
system.cpu1.dcache.tags.data_accesses       124025038                       # Number of data accesses
system.cpu_clk_domain.clock                       500                       # Clock period in ticks
system.tol2bus.pwrStateResidencyTicks::UNDEFINED 677494245000                       # Cumulative time (in ticks) in various power states
system.tol2bus.trans_dist::ReadResp          21588637                       # Transaction distribution
system.tol2bus.trans_dist::WritebackDirty      8948577                       # Transaction distribution
system.tol2bus.trans_dist::WritebackClean     18545805                       # Transaction distribution
system.tol2bus.trans_dist::CleanEvict        32916477                       # Transaction distribution
system.tol2bus.trans_dist::HardPFReq          7306079                       # Transaction distribution
system.tol2bus.trans_dist::HardPFResp               1                       # Transaction distribution
system.tol2bus.trans_dist::UpgradeReq          155723                       # Transaction distribution
system.tol2bus.trans_dist::SCUpgradeReq         95847                       # Transaction distribution
system.tol2bus.trans_dist::UpgradeResp         251570                       # Transaction distribution
system.tol2bus.trans_dist::SCUpgradeFailReq         1934                       # Transaction distribution
system.tol2bus.trans_dist::UpgradeFailResp         1934                       # Transaction distribution
system.tol2bus.trans_dist::ReadExReq          2009241                       # Transaction distribution
system.tol2bus.trans_dist::ReadExResp         2009242                       # Transaction distribution
system.tol2bus.trans_dist::ReadCleanReq       7422133                       # Transaction distribution
system.tol2bus.trans_dist::ReadSharedReq     14166505                       # Transaction distribution
system.tol2bus.trans_dist::InvalidateReq        13630                       # Transaction distribution
system.tol2bus.trans_dist::InvalidateResp        13630                       # Transaction distribution
system.tol2bus.pkt_count_system.cpu0.icache.mem_side::system.l2.cpu_side      8971565                       # Packet count per connected master and slave (bytes)
system.tol2bus.pkt_count_system.cpu0.dcache.mem_side::system.l2.cpu_side     25373108                       # Packet count per connected master and slave (bytes)
system.tol2bus.pkt_count_system.cpu1.icache.mem_side::system.l2.cpu_side     13292776                       # Packet count per connected master and slave (bytes)
system.tol2bus.pkt_count_system.cpu1.dcache.mem_side::system.l2.cpu_side     22840816                       # Packet count per connected master and slave (bytes)
system.tol2bus.pkt_count::total              70478265                       # Packet count per connected master and slave (bytes)
system.tol2bus.pkt_size_system.cpu0.icache.mem_side::system.l2.cpu_side    382760896                       # Cumulative packet size per connected master and slave (bytes)
system.tol2bus.pkt_size_system.cpu0.dcache.mem_side::system.l2.cpu_side   1067096576                       # Cumulative packet size per connected master and slave (bytes)
system.tol2bus.pkt_size_system.cpu1.icache.mem_side::system.l2.cpu_side    567140416                       # Cumulative packet size per connected master and slave (bytes)
system.tol2bus.pkt_size_system.cpu1.dcache.mem_side::system.l2.cpu_side    960628416                       # Cumulative packet size per connected master and slave (bytes)
system.tol2bus.pkt_size::total             2977626304                       # Cumulative packet size per connected master and slave (bytes)
system.tol2bus.snoops                        44968701                       # Total snoops (count)
system.tol2bus.snoopTraffic                 292402304                       # Total snoop traffic (bytes)
system.tol2bus.snoop_fanout::samples         68283308                       # Request fanout histogram
system.tol2bus.snoop_fanout::mean            0.308027                       # Request fanout histogram
system.tol2bus.snoop_fanout::stdev           0.521421                       # Request fanout histogram
system.tol2bus.snoop_fanout::underflows             0      0.00%      0.00% # Request fanout histogram
system.tol2bus.snoop_fanout::0               49137833     71.96%     71.96% # Request fanout histogram
system.tol2bus.snoop_fanout::1               17375526     25.45%     97.41% # Request fanout histogram
system.tol2bus.snoop_fanout::2                1652287      2.42%     99.83% # Request fanout histogram
system.tol2bus.snoop_fanout::3                 117662      0.17%    100.00% # Request fanout histogram
system.tol2bus.snoop_fanout::4                      0      0.00%    100.00% # Request fanout histogram
system.tol2bus.snoop_fanout::5                      0      0.00%    100.00% # Request fanout histogram
system.tol2bus.snoop_fanout::6                      0      0.00%    100.00% # Request fanout histogram
system.tol2bus.snoop_fanout::7                      0      0.00%    100.00% # Request fanout histogram
system.tol2bus.snoop_fanout::8                      0      0.00%    100.00% # Request fanout histogram
system.tol2bus.snoop_fanout::overflows              0      0.00%    100.00% # Request fanout histogram
system.tol2bus.snoop_fanout::min_value              0                       # Request fanout histogram
system.tol2bus.snoop_fanout::max_value              3                       # Request fanout histogram
system.tol2bus.snoop_fanout::total           68283308                       # Request fanout histogram
system.tol2bus.reqLayer0.occupancy        46896177044                       # Layer occupancy (ticks)
system.tol2bus.reqLayer0.utilization              6.9                       # Layer utilization (%)
system.tol2bus.respLayer1.occupancy       12826076131                       # Layer occupancy (ticks)
system.tol2bus.respLayer1.utilization             1.9                       # Layer utilization (%)
system.tol2bus.respLayer0.occupancy        4500136923                       # Layer occupancy (ticks)
system.tol2bus.respLayer0.utilization             0.7                       # Layer utilization (%)
system.tol2bus.respLayer3.occupancy       11599339517                       # Layer occupancy (ticks)
system.tol2bus.respLayer3.utilization             1.7                       # Layer utilization (%)
system.tol2bus.respLayer2.occupancy        6666272476                       # Layer occupancy (ticks)
system.tol2bus.respLayer2.utilization             1.0                       # Layer utilization (%)
system.tol2bus.snoopLayer0.occupancy             1500                       # Layer occupancy (ticks)
system.tol2bus.snoopLayer0.utilization            0.0                       # Layer utilization (%)

---------- End Simulation Statistics   ----------
