
---------- Begin Simulation Statistics ----------
final_tick                               966245560000                       # Number of ticks from beginning of simulation (restored from checkpoints and never reset)
host_inst_rate                                  87088                       # Simulator instruction rate (inst/s)
host_mem_usage                                 739328                       # Number of bytes of host memory used
host_op_rate                                    87373                       # Simulator op (including micro ops) rate (op/s)
host_seconds                                 12738.52                       # Real time elapsed on the host
host_tick_rate                               75852249                       # Simulator tick rate (ticks/s)
sim_freq                                 1000000000000                       # Frequency of simulated ticks
sim_insts                                  1109372825                       # Number of instructions simulated
sim_ops                                    1112999358                       # Number of ops (including micro ops) simulated
sim_seconds                                  0.966246                       # Number of seconds simulated
sim_ticks                                966245560000                       # Number of ticks simulated
system.cpu0.branchPred.BTBCorrect                   0                       # Number of correct BTB predictions (this stat may not work properly.
system.cpu0.branchPred.BTBHitPct            87.878136                       # BTB Hit Percentage
system.cpu0.branchPred.BTBHits              141659993                       # Number of BTB hits
system.cpu0.branchPred.BTBLookups           161200498                       # Number of BTB lookups
system.cpu0.branchPred.RASInCorrect                 0                       # Number of incorrect RAS predictions.
system.cpu0.branchPred.condIncorrect         20657015                       # Number of conditional branches incorrect
system.cpu0.branchPred.condPredicted        216905784                       # Number of conditional branches predicted
system.cpu0.branchPred.indirectHits          18411776                       # Number of indirect target hits.
system.cpu0.branchPred.indirectLookups       18492760                       # Number of indirect predictor lookups.
system.cpu0.branchPred.indirectMisses           80984                       # Number of indirect misses.
system.cpu0.branchPred.lookups              276902457                       # Number of BP lookups
system.cpu0.branchPred.usedRAS                      0                       # Number of times the RAS was used to get a target.
system.cpu0.branchPredindirectMispredicted      1850804                       # Number of mispredicted indirect branches.
system.cpu0.commit.amos                        906048                       # Number of atomic instructions committed
system.cpu0.commit.branchMispredicts         12372417                       # The number of times a branch was mispredicted
system.cpu0.commit.branches                 252643695                       # Number of branches committed
system.cpu0.commit.bw_lim_events             31790479                       # number cycles where commit BW limit reached
system.cpu0.commit.commitNonSpecStalls        2725500                       # The number of times commit has been forced to stall to communicate backwards
system.cpu0.commit.commitSquashedInsts       72948607                       # The number of squashed insts skipped by commit
system.cpu0.commit.committedInsts          1016582798                       # Number of instructions committed
system.cpu0.commit.committedOps            1017491374                       # Number of ops (including micro ops) committed
system.cpu0.commit.committed_per_cycle::samples   1732710657                       # Number of insts commited each cycle
system.cpu0.commit.committed_per_cycle::mean     0.587225                       # Number of insts commited each cycle
system.cpu0.commit.committed_per_cycle::stdev     1.391514                       # Number of insts commited each cycle
system.cpu0.commit.committed_per_cycle::underflows            0      0.00%      0.00% # Number of insts commited each cycle
system.cpu0.commit.committed_per_cycle::0   1258318805     72.62%     72.62% # Number of insts commited each cycle
system.cpu0.commit.committed_per_cycle::1    276001544     15.93%     88.55% # Number of insts commited each cycle
system.cpu0.commit.committed_per_cycle::2     72454078      4.18%     92.73% # Number of insts commited each cycle
system.cpu0.commit.committed_per_cycle::3     60391509      3.49%     96.22% # Number of insts commited each cycle
system.cpu0.commit.committed_per_cycle::4     19841822      1.15%     97.36% # Number of insts commited each cycle
system.cpu0.commit.committed_per_cycle::5      6587694      0.38%     97.74% # Number of insts commited each cycle
system.cpu0.commit.committed_per_cycle::6      2495525      0.14%     97.89% # Number of insts commited each cycle
system.cpu0.commit.committed_per_cycle::7      4829201      0.28%     98.17% # Number of insts commited each cycle
system.cpu0.commit.committed_per_cycle::8     31790479      1.83%    100.00% # Number of insts commited each cycle
system.cpu0.commit.committed_per_cycle::overflows            0      0.00%    100.00% # Number of insts commited each cycle
system.cpu0.commit.committed_per_cycle::min_value            0                       # Number of insts commited each cycle
system.cpu0.commit.committed_per_cycle::max_value            8                       # Number of insts commited each cycle
system.cpu0.commit.committed_per_cycle::total   1732710657                       # Number of insts commited each cycle
system.cpu0.commit.fp_insts                        65                       # Number of committed floating point instructions.
system.cpu0.commit.function_calls            20545876                       # Number of function calls committed.
system.cpu0.commit.int_insts                983009590                       # Number of committed integer instructions.
system.cpu0.commit.loads                    316450744                       # Number of loads committed
system.cpu0.commit.membars                    1814481                       # Number of memory barriers committed
system.cpu0.commit.op_class_0::No_OpClass      1814490      0.18%      0.18% # Class of committed instruction
system.cpu0.commit.op_class_0::IntAlu       563616124     55.39%     55.57% # Class of committed instruction
system.cpu0.commit.op_class_0::IntMult        8030469      0.79%     56.36% # Class of committed instruction
system.cpu0.commit.op_class_0::IntDiv         1811041      0.18%     56.54% # Class of committed instruction
system.cpu0.commit.op_class_0::FloatAdd             0      0.00%     56.54% # Class of committed instruction
system.cpu0.commit.op_class_0::FloatCmp             6      0.00%     56.54% # Class of committed instruction
system.cpu0.commit.op_class_0::FloatCvt            16      0.00%     56.54% # Class of committed instruction
system.cpu0.commit.op_class_0::FloatMult            0      0.00%     56.54% # Class of committed instruction
system.cpu0.commit.op_class_0::FloatMultAcc            0      0.00%     56.54% # Class of committed instruction
system.cpu0.commit.op_class_0::FloatDiv             2      0.00%     56.54% # Class of committed instruction
system.cpu0.commit.op_class_0::FloatMisc            6      0.00%     56.54% # Class of committed instruction
system.cpu0.commit.op_class_0::FloatSqrt            0      0.00%     56.54% # Class of committed instruction
system.cpu0.commit.op_class_0::SimdAdd              0      0.00%     56.54% # Class of committed instruction
system.cpu0.commit.op_class_0::SimdAddAcc            0      0.00%     56.54% # Class of committed instruction
system.cpu0.commit.op_class_0::SimdAlu              0      0.00%     56.54% # Class of committed instruction
system.cpu0.commit.op_class_0::SimdCmp              0      0.00%     56.54% # Class of committed instruction
system.cpu0.commit.op_class_0::SimdCvt              0      0.00%     56.54% # Class of committed instruction
system.cpu0.commit.op_class_0::SimdMisc             0      0.00%     56.54% # Class of committed instruction
system.cpu0.commit.op_class_0::SimdMult             0      0.00%     56.54% # Class of committed instruction
system.cpu0.commit.op_class_0::SimdMultAcc            0      0.00%     56.54% # Class of committed instruction
system.cpu0.commit.op_class_0::SimdShift            0      0.00%     56.54% # Class of committed instruction
system.cpu0.commit.op_class_0::SimdShiftAcc            0      0.00%     56.54% # Class of committed instruction
system.cpu0.commit.op_class_0::SimdDiv              0      0.00%     56.54% # Class of committed instruction
system.cpu0.commit.op_class_0::SimdSqrt             0      0.00%     56.54% # Class of committed instruction
system.cpu0.commit.op_class_0::SimdFloatAdd            0      0.00%     56.54% # Class of committed instruction
system.cpu0.commit.op_class_0::SimdFloatAlu            0      0.00%     56.54% # Class of committed instruction
system.cpu0.commit.op_class_0::SimdFloatCmp            0      0.00%     56.54% # Class of committed instruction
system.cpu0.commit.op_class_0::SimdFloatCvt            0      0.00%     56.54% # Class of committed instruction
system.cpu0.commit.op_class_0::SimdFloatDiv            0      0.00%     56.54% # Class of committed instruction
system.cpu0.commit.op_class_0::SimdFloatMisc            0      0.00%     56.54% # Class of committed instruction
system.cpu0.commit.op_class_0::SimdFloatMult            0      0.00%     56.54% # Class of committed instruction
system.cpu0.commit.op_class_0::SimdFloatMultAcc            0      0.00%     56.54% # Class of committed instruction
system.cpu0.commit.op_class_0::SimdFloatSqrt            0      0.00%     56.54% # Class of committed instruction
system.cpu0.commit.op_class_0::SimdReduceAdd            0      0.00%     56.54% # Class of committed instruction
system.cpu0.commit.op_class_0::SimdReduceAlu            0      0.00%     56.54% # Class of committed instruction
system.cpu0.commit.op_class_0::SimdReduceCmp            0      0.00%     56.54% # Class of committed instruction
system.cpu0.commit.op_class_0::SimdFloatReduceAdd            0      0.00%     56.54% # Class of committed instruction
system.cpu0.commit.op_class_0::SimdFloatReduceCmp            0      0.00%     56.54% # Class of committed instruction
system.cpu0.commit.op_class_0::SimdAes              0      0.00%     56.54% # Class of committed instruction
system.cpu0.commit.op_class_0::SimdAesMix            0      0.00%     56.54% # Class of committed instruction
system.cpu0.commit.op_class_0::SimdSha1Hash            0      0.00%     56.54% # Class of committed instruction
system.cpu0.commit.op_class_0::SimdSha1Hash2            0      0.00%     56.54% # Class of committed instruction
system.cpu0.commit.op_class_0::SimdSha256Hash            0      0.00%     56.54% # Class of committed instruction
system.cpu0.commit.op_class_0::SimdSha256Hash2            0      0.00%     56.54% # Class of committed instruction
system.cpu0.commit.op_class_0::SimdShaSigma2            0      0.00%     56.54% # Class of committed instruction
system.cpu0.commit.op_class_0::SimdShaSigma3            0      0.00%     56.54% # Class of committed instruction
system.cpu0.commit.op_class_0::SimdPredAlu            0      0.00%     56.54% # Class of committed instruction
system.cpu0.commit.op_class_0::MemRead      317356780     31.19%     87.73% # Class of committed instruction
system.cpu0.commit.op_class_0::MemWrite     124862405     12.27%    100.00% # Class of committed instruction
system.cpu0.commit.op_class_0::FloatMemRead           12      0.00%    100.00% # Class of committed instruction
system.cpu0.commit.op_class_0::FloatMemWrite           23      0.00%    100.00% # Class of committed instruction
system.cpu0.commit.op_class_0::IprAccess            0      0.00%    100.00% # Class of committed instruction
system.cpu0.commit.op_class_0::InstPrefetch            0      0.00%    100.00% # Class of committed instruction
system.cpu0.commit.op_class_0::total       1017491374                       # Class of committed instruction
system.cpu0.commit.refs                     442219220                       # Number of memory references committed
system.cpu0.commit.swp_count                        0                       # Number of s/w prefetches committed
system.cpu0.commit.vec_insts                        0                       # Number of committed Vector instructions.
system.cpu0.committedInsts                 1016582798                       # Number of Instructions Simulated
system.cpu0.committedOps                   1017491374                       # Number of Ops (including micro ops) Simulated
system.cpu0.cpi                              1.884076                       # CPI: Cycles Per Instruction
system.cpu0.cpi_total                        1.884076                       # CPI: Total CPI of All Threads
system.cpu0.decode.BlockedCycles            184166029                       # Number of cycles decode is blocked
system.cpu0.decode.BranchMispred              8288605                       # Number of times decode detected a branch misprediction
system.cpu0.decode.BranchResolved           140280900                       # Number of times decode resolved a branch
system.cpu0.decode.DecodedInsts            1122316247                       # Number of instructions handled by decode
system.cpu0.decode.IdleCycles               748556095                       # Number of cycles decode is idle
system.cpu0.decode.RunCycles                801588568                       # Number of cycles decode is running
system.cpu0.decode.SquashCycles              12384773                       # Number of cycles decode is squashing
system.cpu0.decode.SquashedInsts             18016635                       # Number of squashed instructions handled by decode
system.cpu0.decode.UnblockCycles              4275620                       # Number of cycles decode is unblocking
system.cpu0.dtb.accesses                            0                       # DTB accesses
system.cpu0.dtb.hits                                0                       # DTB hits
system.cpu0.dtb.misses                              0                       # DTB misses
system.cpu0.dtb.read_accesses                       0                       # DTB read accesses
system.cpu0.dtb.read_hits                           0                       # DTB read hits
system.cpu0.dtb.read_misses                         0                       # DTB read misses
system.cpu0.dtb.write_accesses                      0                       # DTB write accesses
system.cpu0.dtb.write_hits                          0                       # DTB write hits
system.cpu0.dtb.write_misses                        0                       # DTB write misses
system.cpu0.fetch.Branches                  276902457                       # Number of branches that fetch encountered
system.cpu0.fetch.CacheLines                206264217                       # Number of cache lines fetched
system.cpu0.fetch.Cycles                    997500395                       # Number of cycles fetch has run and was not squashing or blocked
system.cpu0.fetch.IcacheSquashes              4984019                       # Number of outstanding Icache misses that were squashed
system.cpu0.fetch.IcacheWaitRetryStallCycles          148                       # Number of stall cycles due to full MSHR
system.cpu0.fetch.Insts                    1155574045                       # Number of instructions fetch has processed
system.cpu0.fetch.MiscStallCycles                  41                       # Number of cycles fetch has spent waiting on interrupts, or bad addresses, or out of MSHRs
system.cpu0.fetch.PendingTrapStallCycles          112                       # Number of stall cycles due to pending traps
system.cpu0.fetch.SquashCycles               41338776                       # Number of cycles fetch has spent squashing
system.cpu0.fetch.branchRate                 0.144573                       # Number of branch fetches per cycle
system.cpu0.fetch.icacheStallCycles         732801001                       # Number of cycles fetch is stalled on an Icache miss
system.cpu0.fetch.predictedBranches         160071769                       # Number of branches that fetch has predicted taken
system.cpu0.fetch.rate                       0.603332                       # Number of inst fetches per cycle
system.cpu0.fetch.rateDist::samples        1750971085                       # Number of instructions fetched each cycle (Total)
system.cpu0.fetch.rateDist::mean             0.661595                       # Number of instructions fetched each cycle (Total)
system.cpu0.fetch.rateDist::stdev            0.892034                       # Number of instructions fetched each cycle (Total)
system.cpu0.fetch.rateDist::underflows              0      0.00%      0.00% # Number of instructions fetched each cycle (Total)
system.cpu0.fetch.rateDist::0               917195388     52.38%     52.38% # Number of instructions fetched each cycle (Total)
system.cpu0.fetch.rateDist::1               626710255     35.79%     88.17% # Number of instructions fetched each cycle (Total)
system.cpu0.fetch.rateDist::2               125504106      7.17%     95.34% # Number of instructions fetched each cycle (Total)
system.cpu0.fetch.rateDist::3                60691061      3.47%     98.81% # Number of instructions fetched each cycle (Total)
system.cpu0.fetch.rateDist::4                10817019      0.62%     99.43% # Number of instructions fetched each cycle (Total)
system.cpu0.fetch.rateDist::5                 6942075      0.40%     99.82% # Number of instructions fetched each cycle (Total)
system.cpu0.fetch.rateDist::6                 1204657      0.07%     99.89% # Number of instructions fetched each cycle (Total)
system.cpu0.fetch.rateDist::7                 1816668      0.10%     99.99% # Number of instructions fetched each cycle (Total)
system.cpu0.fetch.rateDist::8                   89856      0.01%    100.00% # Number of instructions fetched each cycle (Total)
system.cpu0.fetch.rateDist::overflows               0      0.00%    100.00% # Number of instructions fetched each cycle (Total)
system.cpu0.fetch.rateDist::min_value               0                       # Number of instructions fetched each cycle (Total)
system.cpu0.fetch.rateDist::max_value               8                       # Number of instructions fetched each cycle (Total)
system.cpu0.fetch.rateDist::total          1750971085                       # Number of instructions fetched each cycle (Total)
system.cpu0.fp_regfile_reads                       56                       # number of floating regfile reads
system.cpu0.fp_regfile_writes                      40                       # number of floating regfile writes
system.cpu0.idleCycles                      164347726                       # Total number of cycles that the CPU has spent unscheduled due to idling
system.cpu0.iew.branchMispredicts            12448764                       # Number of branch mispredicts detected at execute
system.cpu0.iew.exec_branches               262447346                       # Number of branches executed
system.cpu0.iew.exec_nop                            0                       # number of nop insts executed
system.cpu0.iew.exec_rate                    0.558003                       # Inst execution rate
system.cpu0.iew.exec_refs                   472313263                       # number of memory reference insts executed
system.cpu0.iew.exec_stores                 129831640                       # Number of stores executed
system.cpu0.iew.exec_swp                            0                       # number of swp insts executed
system.cpu0.iew.iewBlockCycles              146647977                       # Number of cycles IEW is blocking
system.cpu0.iew.iewDispLoadInsts            346841221                       # Number of dispatched load instructions
system.cpu0.iew.iewDispNonSpecInsts           1792952                       # Number of dispatched non-speculative instructions
system.cpu0.iew.iewDispSquashedInsts          7172156                       # Number of squashed instructions skipped by dispatch
system.cpu0.iew.iewDispStoreInsts           133629609                       # Number of dispatched store instructions
system.cpu0.iew.iewDispatchedInsts         1090429716                       # Number of instructions dispatched to IQ
system.cpu0.iew.iewExecLoadInsts            342481623                       # Number of load instructions executed
system.cpu0.iew.iewExecSquashedInsts          5096650                       # Number of squashed instructions skipped in execute
system.cpu0.iew.iewExecutedInsts           1068754054                       # Number of executed instructions
system.cpu0.iew.iewIQFullEvents               1185546                       # Number of times the IQ has become full, causing a stall
system.cpu0.iew.iewIdleCycles                       0                       # Number of cycles IEW is idle
system.cpu0.iew.iewLSQFullEvents              1911870                       # Number of times the LSQ has become full, causing a stall
system.cpu0.iew.iewSquashCycles              12384773                       # Number of cycles IEW is squashing
system.cpu0.iew.iewUnblockCycles              4290766                       # Number of cycles IEW is unblocking
system.cpu0.iew.lsq.thread0.blockedLoads            0                       # Number of blocked loads due to partial load-store forwarding
system.cpu0.iew.lsq.thread0.cacheBlocked       165832                       # Number of times an access to memory failed due to the cache being blocked
system.cpu0.iew.lsq.thread0.forwLoads        20611178                       # Number of loads that had data forwarded from stores
system.cpu0.iew.lsq.thread0.ignoredResponses        45520                       # Number of memory responses ignored because the instruction is squashed
system.cpu0.iew.lsq.thread0.invAddrLoads            0                       # Number of loads ignored due to an invalid address
system.cpu0.iew.lsq.thread0.invAddrSwpfs            0                       # Number of software prefetches ignored due to an invalid address
system.cpu0.iew.lsq.thread0.memOrderViolation        13664                       # Number of memory ordering violations
system.cpu0.iew.lsq.thread0.rescheduledLoads      4054091                       # Number of loads that were rescheduled
system.cpu0.iew.lsq.thread0.squashedLoads     30390477                       # Number of loads squashed
system.cpu0.iew.lsq.thread0.squashedStores      7861133                       # Number of stores squashed
system.cpu0.iew.memOrderViolationEvents         13664                       # Number of memory order violations
system.cpu0.iew.predictedNotTakenIncorrect      1102032                       # Number of branches that were predicted not taken incorrectly
system.cpu0.iew.predictedTakenIncorrect      11346732                       # Number of branches that were predicted taken incorrectly
system.cpu0.iew.wb_consumers                447413158                       # num instructions consuming a value
system.cpu0.iew.wb_count                   1059722677                       # cumulative count of insts written-back
system.cpu0.iew.wb_fanout                    0.847981                       # average fanout of values written-back
system.cpu0.iew.wb_producers                379397754                       # num instructions producing a value
system.cpu0.iew.wb_rate                      0.553288                       # insts written-back per cycle
system.cpu0.iew.wb_sent                    1059788826                       # cumulative count of insts sent to commit
system.cpu0.int_regfile_reads              1303338033                       # number of integer regfile reads
system.cpu0.int_regfile_writes              676119709                       # number of integer regfile writes
system.cpu0.ipc                              0.530764                       # IPC: Instructions Per Cycle
system.cpu0.ipc_total                        0.530764                       # IPC: Total IPC of All Threads
system.cpu0.iq.FU_type_0::No_OpClass          1816230      0.17%      0.17% # Type of FU issued
system.cpu0.iq.FU_type_0::IntAlu            587097959     54.67%     54.84% # Type of FU issued
system.cpu0.iq.FU_type_0::IntMult             8036873      0.75%     55.59% # Type of FU issued
system.cpu0.iq.FU_type_0::IntDiv              1811529      0.17%     55.76% # Type of FU issued
system.cpu0.iq.FU_type_0::FloatAdd                  0      0.00%     55.76% # Type of FU issued
system.cpu0.iq.FU_type_0::FloatCmp                  6      0.00%     55.76% # Type of FU issued
system.cpu0.iq.FU_type_0::FloatCvt                 16      0.00%     55.76% # Type of FU issued
system.cpu0.iq.FU_type_0::FloatMult                 0      0.00%     55.76% # Type of FU issued
system.cpu0.iq.FU_type_0::FloatMultAcc              0      0.00%     55.76% # Type of FU issued
system.cpu0.iq.FU_type_0::FloatDiv                  2      0.00%     55.76% # Type of FU issued
system.cpu0.iq.FU_type_0::FloatMisc                 6      0.00%     55.76% # Type of FU issued
system.cpu0.iq.FU_type_0::FloatSqrt                 0      0.00%     55.76% # Type of FU issued
system.cpu0.iq.FU_type_0::SimdAdd                   0      0.00%     55.76% # Type of FU issued
system.cpu0.iq.FU_type_0::SimdAddAcc                0      0.00%     55.76% # Type of FU issued
system.cpu0.iq.FU_type_0::SimdAlu                   0      0.00%     55.76% # Type of FU issued
system.cpu0.iq.FU_type_0::SimdCmp                   0      0.00%     55.76% # Type of FU issued
system.cpu0.iq.FU_type_0::SimdCvt                   0      0.00%     55.76% # Type of FU issued
system.cpu0.iq.FU_type_0::SimdMisc                  0      0.00%     55.76% # Type of FU issued
system.cpu0.iq.FU_type_0::SimdMult                  0      0.00%     55.76% # Type of FU issued
system.cpu0.iq.FU_type_0::SimdMultAcc               0      0.00%     55.76% # Type of FU issued
system.cpu0.iq.FU_type_0::SimdShift                 0      0.00%     55.76% # Type of FU issued
system.cpu0.iq.FU_type_0::SimdShiftAcc              0      0.00%     55.76% # Type of FU issued
system.cpu0.iq.FU_type_0::SimdDiv                   0      0.00%     55.76% # Type of FU issued
system.cpu0.iq.FU_type_0::SimdSqrt                  0      0.00%     55.76% # Type of FU issued
system.cpu0.iq.FU_type_0::SimdFloatAdd              0      0.00%     55.76% # Type of FU issued
system.cpu0.iq.FU_type_0::SimdFloatAlu              0      0.00%     55.76% # Type of FU issued
system.cpu0.iq.FU_type_0::SimdFloatCmp              0      0.00%     55.76% # Type of FU issued
system.cpu0.iq.FU_type_0::SimdFloatCvt              0      0.00%     55.76% # Type of FU issued
system.cpu0.iq.FU_type_0::SimdFloatDiv              0      0.00%     55.76% # Type of FU issued
system.cpu0.iq.FU_type_0::SimdFloatMisc             0      0.00%     55.76% # Type of FU issued
system.cpu0.iq.FU_type_0::SimdFloatMult             0      0.00%     55.76% # Type of FU issued
system.cpu0.iq.FU_type_0::SimdFloatMultAcc            0      0.00%     55.76% # Type of FU issued
system.cpu0.iq.FU_type_0::SimdFloatSqrt             0      0.00%     55.76% # Type of FU issued
system.cpu0.iq.FU_type_0::SimdReduceAdd             0      0.00%     55.76% # Type of FU issued
system.cpu0.iq.FU_type_0::SimdReduceAlu             0      0.00%     55.76% # Type of FU issued
system.cpu0.iq.FU_type_0::SimdReduceCmp             0      0.00%     55.76% # Type of FU issued
system.cpu0.iq.FU_type_0::SimdFloatReduceAdd            0      0.00%     55.76% # Type of FU issued
system.cpu0.iq.FU_type_0::SimdFloatReduceCmp            0      0.00%     55.76% # Type of FU issued
system.cpu0.iq.FU_type_0::SimdAes                   0      0.00%     55.76% # Type of FU issued
system.cpu0.iq.FU_type_0::SimdAesMix                0      0.00%     55.76% # Type of FU issued
system.cpu0.iq.FU_type_0::SimdSha1Hash              0      0.00%     55.76% # Type of FU issued
system.cpu0.iq.FU_type_0::SimdSha1Hash2             0      0.00%     55.76% # Type of FU issued
system.cpu0.iq.FU_type_0::SimdSha256Hash            0      0.00%     55.76% # Type of FU issued
system.cpu0.iq.FU_type_0::SimdSha256Hash2            0      0.00%     55.76% # Type of FU issued
system.cpu0.iq.FU_type_0::SimdShaSigma2             0      0.00%     55.76% # Type of FU issued
system.cpu0.iq.FU_type_0::SimdShaSigma3             0      0.00%     55.76% # Type of FU issued
system.cpu0.iq.FU_type_0::SimdPredAlu               0      0.00%     55.76% # Type of FU issued
system.cpu0.iq.FU_type_0::MemRead           344986041     32.13%     87.88% # Type of FU issued
system.cpu0.iq.FU_type_0::MemWrite          130101969     12.12%    100.00% # Type of FU issued
system.cpu0.iq.FU_type_0::FloatMemRead             51      0.00%    100.00% # Type of FU issued
system.cpu0.iq.FU_type_0::FloatMemWrite            23      0.00%    100.00% # Type of FU issued
system.cpu0.iq.FU_type_0::IprAccess                 0      0.00%    100.00% # Type of FU issued
system.cpu0.iq.FU_type_0::InstPrefetch              0      0.00%    100.00% # Type of FU issued
system.cpu0.iq.FU_type_0::total            1073850705                       # Type of FU issued
system.cpu0.iq.fp_alu_accesses                    107                       # Number of floating point alu accesses
system.cpu0.iq.fp_inst_queue_reads                211                       # Number of floating instruction queue reads
system.cpu0.iq.fp_inst_queue_wakeup_accesses           74                       # Number of floating instruction queue wakeup accesses
system.cpu0.iq.fp_inst_queue_writes               173                       # Number of floating instruction queue writes
system.cpu0.iq.fu_busy_cnt                    1371751                       # FU busy when requested
system.cpu0.iq.fu_busy_rate                  0.001277                       # FU busy rate (busy events/executed inst)
system.cpu0.iq.fu_full::No_OpClass                  0      0.00%      0.00% # attempts to use FU when none available
system.cpu0.iq.fu_full::IntAlu                 313157     22.83%     22.83% # attempts to use FU when none available
system.cpu0.iq.fu_full::IntMult                     0      0.00%     22.83% # attempts to use FU when none available
system.cpu0.iq.fu_full::IntDiv                      0      0.00%     22.83% # attempts to use FU when none available
system.cpu0.iq.fu_full::FloatAdd                    0      0.00%     22.83% # attempts to use FU when none available
system.cpu0.iq.fu_full::FloatCmp                    0      0.00%     22.83% # attempts to use FU when none available
system.cpu0.iq.fu_full::FloatCvt                    0      0.00%     22.83% # attempts to use FU when none available
system.cpu0.iq.fu_full::FloatMult                   0      0.00%     22.83% # attempts to use FU when none available
system.cpu0.iq.fu_full::FloatMultAcc                0      0.00%     22.83% # attempts to use FU when none available
system.cpu0.iq.fu_full::FloatDiv                    0      0.00%     22.83% # attempts to use FU when none available
system.cpu0.iq.fu_full::FloatMisc                   0      0.00%     22.83% # attempts to use FU when none available
system.cpu0.iq.fu_full::FloatSqrt                   0      0.00%     22.83% # attempts to use FU when none available
system.cpu0.iq.fu_full::SimdAdd                     0      0.00%     22.83% # attempts to use FU when none available
system.cpu0.iq.fu_full::SimdAddAcc                  0      0.00%     22.83% # attempts to use FU when none available
system.cpu0.iq.fu_full::SimdAlu                     0      0.00%     22.83% # attempts to use FU when none available
system.cpu0.iq.fu_full::SimdCmp                     0      0.00%     22.83% # attempts to use FU when none available
system.cpu0.iq.fu_full::SimdCvt                     0      0.00%     22.83% # attempts to use FU when none available
system.cpu0.iq.fu_full::SimdMisc                    0      0.00%     22.83% # attempts to use FU when none available
system.cpu0.iq.fu_full::SimdMult                    0      0.00%     22.83% # attempts to use FU when none available
system.cpu0.iq.fu_full::SimdMultAcc                 0      0.00%     22.83% # attempts to use FU when none available
system.cpu0.iq.fu_full::SimdShift                   0      0.00%     22.83% # attempts to use FU when none available
system.cpu0.iq.fu_full::SimdShiftAcc                0      0.00%     22.83% # attempts to use FU when none available
system.cpu0.iq.fu_full::SimdDiv                     0      0.00%     22.83% # attempts to use FU when none available
system.cpu0.iq.fu_full::SimdSqrt                    0      0.00%     22.83% # attempts to use FU when none available
system.cpu0.iq.fu_full::SimdFloatAdd                0      0.00%     22.83% # attempts to use FU when none available
system.cpu0.iq.fu_full::SimdFloatAlu                0      0.00%     22.83% # attempts to use FU when none available
system.cpu0.iq.fu_full::SimdFloatCmp                0      0.00%     22.83% # attempts to use FU when none available
system.cpu0.iq.fu_full::SimdFloatCvt                0      0.00%     22.83% # attempts to use FU when none available
system.cpu0.iq.fu_full::SimdFloatDiv                0      0.00%     22.83% # attempts to use FU when none available
system.cpu0.iq.fu_full::SimdFloatMisc               0      0.00%     22.83% # attempts to use FU when none available
system.cpu0.iq.fu_full::SimdFloatMult               0      0.00%     22.83% # attempts to use FU when none available
system.cpu0.iq.fu_full::SimdFloatMultAcc            0      0.00%     22.83% # attempts to use FU when none available
system.cpu0.iq.fu_full::SimdFloatSqrt               0      0.00%     22.83% # attempts to use FU when none available
system.cpu0.iq.fu_full::SimdReduceAdd               0      0.00%     22.83% # attempts to use FU when none available
system.cpu0.iq.fu_full::SimdReduceAlu               0      0.00%     22.83% # attempts to use FU when none available
system.cpu0.iq.fu_full::SimdReduceCmp               0      0.00%     22.83% # attempts to use FU when none available
system.cpu0.iq.fu_full::SimdFloatReduceAdd            0      0.00%     22.83% # attempts to use FU when none available
system.cpu0.iq.fu_full::SimdFloatReduceCmp            0      0.00%     22.83% # attempts to use FU when none available
system.cpu0.iq.fu_full::SimdAes                     0      0.00%     22.83% # attempts to use FU when none available
system.cpu0.iq.fu_full::SimdAesMix                  0      0.00%     22.83% # attempts to use FU when none available
system.cpu0.iq.fu_full::SimdSha1Hash                0      0.00%     22.83% # attempts to use FU when none available
system.cpu0.iq.fu_full::SimdSha1Hash2               0      0.00%     22.83% # attempts to use FU when none available
system.cpu0.iq.fu_full::SimdSha256Hash              0      0.00%     22.83% # attempts to use FU when none available
system.cpu0.iq.fu_full::SimdSha256Hash2             0      0.00%     22.83% # attempts to use FU when none available
system.cpu0.iq.fu_full::SimdShaSigma2               0      0.00%     22.83% # attempts to use FU when none available
system.cpu0.iq.fu_full::SimdShaSigma3               0      0.00%     22.83% # attempts to use FU when none available
system.cpu0.iq.fu_full::SimdPredAlu                 0      0.00%     22.83% # attempts to use FU when none available
system.cpu0.iq.fu_full::MemRead                917211     66.86%     89.69% # attempts to use FU when none available
system.cpu0.iq.fu_full::MemWrite               141380     10.31%    100.00% # attempts to use FU when none available
system.cpu0.iq.fu_full::FloatMemRead                0      0.00%    100.00% # attempts to use FU when none available
system.cpu0.iq.fu_full::FloatMemWrite               3      0.00%    100.00% # attempts to use FU when none available
system.cpu0.iq.fu_full::IprAccess                   0      0.00%    100.00% # attempts to use FU when none available
system.cpu0.iq.fu_full::InstPrefetch                0      0.00%    100.00% # attempts to use FU when none available
system.cpu0.iq.int_alu_accesses            1073406119                       # Number of integer alu accesses
system.cpu0.iq.int_inst_queue_reads        3900136309                       # Number of integer instruction queue reads
system.cpu0.iq.int_inst_queue_wakeup_accesses   1059722603                       # Number of integer instruction queue wakeup accesses
system.cpu0.iq.int_inst_queue_writes       1163380348                       # Number of integer instruction queue writes
system.cpu0.iq.iqInstsAdded                1085059261                       # Number of instructions added to the IQ (excludes non-spec)
system.cpu0.iq.iqInstsIssued               1073850705                       # Number of instructions issued
system.cpu0.iq.iqNonSpecInstsAdded            5370455                       # Number of non-speculative instructions added to the IQ
system.cpu0.iq.iqSquashedInstsExamined       72938338                       # Number of squashed instructions iterated over during squash; mainly for profiling
system.cpu0.iq.iqSquashedInstsIssued            92275                       # Number of squashed instructions issued
system.cpu0.iq.iqSquashedNonSpecRemoved       2644955                       # Number of squashed non-spec instructions that were removed
system.cpu0.iq.iqSquashedOperandsExamined     33463878                       # Number of squashed operands that are examined and possibly removed from graph
system.cpu0.iq.issued_per_cycle::samples   1750971085                       # Number of insts issued each cycle
system.cpu0.iq.issued_per_cycle::mean        0.613289                       # Number of insts issued each cycle
system.cpu0.iq.issued_per_cycle::stdev       0.807526                       # Number of insts issued each cycle
system.cpu0.iq.issued_per_cycle::underflows            0      0.00%      0.00% # Number of insts issued each cycle
system.cpu0.iq.issued_per_cycle::0          959367533     54.79%     54.79% # Number of insts issued each cycle
system.cpu0.iq.issued_per_cycle::1          567648284     32.42%     87.21% # Number of insts issued each cycle
system.cpu0.iq.issued_per_cycle::2          181180314     10.35%     97.56% # Number of insts issued each cycle
system.cpu0.iq.issued_per_cycle::3           32780496      1.87%     99.43% # Number of insts issued each cycle
system.cpu0.iq.issued_per_cycle::4            5679596      0.32%     99.75% # Number of insts issued each cycle
system.cpu0.iq.issued_per_cycle::5            3485186      0.20%     99.95% # Number of insts issued each cycle
system.cpu0.iq.issued_per_cycle::6             555074      0.03%     99.98% # Number of insts issued each cycle
system.cpu0.iq.issued_per_cycle::7             171269      0.01%     99.99% # Number of insts issued each cycle
system.cpu0.iq.issued_per_cycle::8             103333      0.01%    100.00% # Number of insts issued each cycle
system.cpu0.iq.issued_per_cycle::overflows            0      0.00%    100.00% # Number of insts issued each cycle
system.cpu0.iq.issued_per_cycle::min_value            0                       # Number of insts issued each cycle
system.cpu0.iq.issued_per_cycle::max_value            8                       # Number of insts issued each cycle
system.cpu0.iq.issued_per_cycle::total     1750971085                       # Number of insts issued each cycle
system.cpu0.iq.rate                          0.560664                       # Inst issue rate
system.cpu0.iq.vec_alu_accesses                     0                       # Number of vector alu accesses
system.cpu0.iq.vec_inst_queue_reads                 0                       # Number of vector instruction queue reads
system.cpu0.iq.vec_inst_queue_wakeup_accesses            0                       # Number of vector instruction queue wakeup accesses
system.cpu0.iq.vec_inst_queue_writes                0                       # Number of vector instruction queue writes
system.cpu0.itb.accesses                            0                       # DTB accesses
system.cpu0.itb.hits                                0                       # DTB hits
system.cpu0.itb.misses                              0                       # DTB misses
system.cpu0.itb.read_accesses                       0                       # DTB read accesses
system.cpu0.itb.read_hits                           0                       # DTB read hits
system.cpu0.itb.read_misses                         0                       # DTB read misses
system.cpu0.itb.write_accesses                      0                       # DTB write accesses
system.cpu0.itb.write_hits                          0                       # DTB write hits
system.cpu0.itb.write_misses                        0                       # DTB write misses
system.cpu0.memDep0.conflictingLoads         15652456                       # Number of conflicting loads.
system.cpu0.memDep0.conflictingStores         3044071                       # Number of conflicting stores.
system.cpu0.memDep0.insertedLoads           346841221                       # Number of loads inserted to the mem dependence unit.
system.cpu0.memDep0.insertedStores          133629609                       # Number of stores inserted to the mem dependence unit.
system.cpu0.misc_regfile_reads                   1706                       # number of misc regfile reads
system.cpu0.misc_regfile_writes                    30                       # number of misc regfile writes
system.cpu0.numCycles                      1915318811                       # number of cpu cycles simulated
system.cpu0.numWorkItemsCompleted                   0                       # number of work items this cpu completed
system.cpu0.numWorkItemsStarted                     0                       # number of work items this cpu started
system.cpu0.quiesceCycles                    17172841                       # Total number of cycles that CPU has spent quiesced or waiting for an interrupt
system.cpu0.rename.BlockCycles              156253395                       # Number of cycles rename is blocking
system.cpu0.rename.CommittedMaps            647535164                       # Number of HB maps that are committed
system.cpu0.rename.IQFullEvents               5728287                       # Number of times rename has blocked due to IQ full
system.cpu0.rename.IdleCycles               765432266                       # Number of cycles rename is idle
system.cpu0.rename.LQFullEvents               7785730                       # Number of times rename has blocked due to LQ full
system.cpu0.rename.ROBFullEvents                11993                       # Number of times rename has blocked due to ROB full
system.cpu0.rename.RenameLookups           1354063461                       # Number of register rename lookups that rename has made
system.cpu0.rename.RenamedInsts            1110268934                       # Number of instructions processed by rename
system.cpu0.rename.RenamedOperands          713184032                       # Number of destination operands rename has renamed
system.cpu0.rename.RunCycles                788077550                       # Number of cycles rename is running
system.cpu0.rename.SQFullEvents              14829373                       # Number of times rename has blocked due to SQ full
system.cpu0.rename.SquashCycles              12384773                       # Number of cycles rename is squashing
system.cpu0.rename.UnblockCycles             28503837                       # Number of cycles rename is unblocking
system.cpu0.rename.UndoneMaps                65648863                       # Number of HB maps that are undone due to squashing
system.cpu0.rename.fp_rename_lookups               56                       # Number of floating rename lookups
system.cpu0.rename.int_rename_lookups      1354063405                       # Number of integer rename lookups
system.cpu0.rename.serializeStallCycles        319264                       # count of cycles rename stalled for serializing inst
system.cpu0.rename.serializingInsts              5129                       # count of serializing insts renamed
system.cpu0.rename.skidInsts                 12684327                       # count of insts added to the skid buffer
system.cpu0.rename.tempSerializingInsts          5124                       # count of temporary serializing insts renamed
system.cpu0.rob.rob_reads                  2791338722                       # The number of ROB reads
system.cpu0.rob.rob_writes                 2199153902                       # The number of ROB writes
system.cpu0.timesIdled                       22559815                       # Number of times that the entire CPU went into an idle state and unscheduled itself
system.cpu0.workload.numSyscalls                 1662                       # Number of system calls
system.cpu1.branchPred.BTBCorrect                   0                       # Number of correct BTB predictions (this stat may not work properly.
system.cpu1.branchPred.BTBHitPct            86.220629                       # BTB Hit Percentage
system.cpu1.branchPred.BTBHits                5993740                       # Number of BTB hits
system.cpu1.branchPred.BTBLookups             6951631                       # Number of BTB lookups
system.cpu1.branchPred.RASInCorrect                 0                       # Number of incorrect RAS predictions.
system.cpu1.branchPred.condIncorrect           800456                       # Number of conditional branches incorrect
system.cpu1.branchPred.condPredicted          9793029                       # Number of conditional branches predicted
system.cpu1.branchPred.indirectHits            231945                       # Number of indirect target hits.
system.cpu1.branchPred.indirectLookups         236844                       # Number of indirect predictor lookups.
system.cpu1.branchPred.indirectMisses            4899                       # Number of indirect misses.
system.cpu1.branchPred.lookups               11085752                       # Number of BP lookups
system.cpu1.branchPred.usedRAS                      0                       # Number of times the RAS was used to get a target.
system.cpu1.branchPredindirectMispredicted        13502                       # Number of mispredicted indirect branches.
system.cpu1.commit.amos                        905821                       # Number of atomic instructions committed
system.cpu1.commit.branchMispredicts           640821                       # The number of times a branch was mispredicted
system.cpu1.commit.branches                   8766099                       # Number of branches committed
system.cpu1.commit.bw_lim_events               925465                       # number cycles where commit BW limit reached
system.cpu1.commit.commitNonSpecStalls        2718110                       # The number of times commit has been forced to stall to communicate backwards
system.cpu1.commit.commitSquashedInsts        5049635                       # The number of squashed insts skipped by commit
system.cpu1.commit.committedInsts            37198332                       # Number of instructions committed
system.cpu1.commit.committedOps              38104323                       # Number of ops (including micro ops) committed
system.cpu1.commit.committed_per_cycle::samples    214485600                       # Number of insts commited each cycle
system.cpu1.commit.committed_per_cycle::mean     0.177654                       # Number of insts commited each cycle
system.cpu1.commit.committed_per_cycle::stdev     0.828437                       # Number of insts commited each cycle
system.cpu1.commit.committed_per_cycle::underflows            0      0.00%      0.00% # Number of insts commited each cycle
system.cpu1.commit.committed_per_cycle::0    198768111     92.67%     92.67% # Number of insts commited each cycle
system.cpu1.commit.committed_per_cycle::1      7608988      3.55%     96.22% # Number of insts commited each cycle
system.cpu1.commit.committed_per_cycle::2      2605132      1.21%     97.43% # Number of insts commited each cycle
system.cpu1.commit.committed_per_cycle::3      2580521      1.20%     98.64% # Number of insts commited each cycle
system.cpu1.commit.committed_per_cycle::4       860215      0.40%     99.04% # Number of insts commited each cycle
system.cpu1.commit.committed_per_cycle::5       199996      0.09%     99.13% # Number of insts commited each cycle
system.cpu1.commit.committed_per_cycle::6       861256      0.40%     99.53% # Number of insts commited each cycle
system.cpu1.commit.committed_per_cycle::7        75916      0.04%     99.57% # Number of insts commited each cycle
system.cpu1.commit.committed_per_cycle::8       925465      0.43%    100.00% # Number of insts commited each cycle
system.cpu1.commit.committed_per_cycle::overflows            0      0.00%    100.00% # Number of insts commited each cycle
system.cpu1.commit.committed_per_cycle::min_value            0                       # Number of insts commited each cycle
system.cpu1.commit.committed_per_cycle::max_value            8                       # Number of insts commited each cycle
system.cpu1.commit.committed_per_cycle::total    214485600                       # Number of insts commited each cycle
system.cpu1.commit.fp_insts                        12                       # Number of committed floating point instructions.
system.cpu1.commit.function_calls              377766                       # Number of function calls committed.
system.cpu1.commit.int_insts                 35813963                       # Number of committed integer instructions.
system.cpu1.commit.loads                     10298682                       # Number of loads committed
system.cpu1.commit.membars                    1811677                       # Number of memory barriers committed
system.cpu1.commit.op_class_0::No_OpClass      1811677      4.75%      4.75% # Class of committed instruction
system.cpu1.commit.op_class_0::IntAlu        22362578     58.69%     63.44% # Class of committed instruction
system.cpu1.commit.op_class_0::IntMult             43      0.00%     63.44% # Class of committed instruction
system.cpu1.commit.op_class_0::IntDiv              86      0.00%     63.44% # Class of committed instruction
system.cpu1.commit.op_class_0::FloatAdd             0      0.00%     63.44% # Class of committed instruction
system.cpu1.commit.op_class_0::FloatCmp             0      0.00%     63.44% # Class of committed instruction
system.cpu1.commit.op_class_0::FloatCvt             0      0.00%     63.44% # Class of committed instruction
system.cpu1.commit.op_class_0::FloatMult            0      0.00%     63.44% # Class of committed instruction
system.cpu1.commit.op_class_0::FloatMultAcc            0      0.00%     63.44% # Class of committed instruction
system.cpu1.commit.op_class_0::FloatDiv             0      0.00%     63.44% # Class of committed instruction
system.cpu1.commit.op_class_0::FloatMisc            0      0.00%     63.44% # Class of committed instruction
system.cpu1.commit.op_class_0::FloatSqrt            0      0.00%     63.44% # Class of committed instruction
system.cpu1.commit.op_class_0::SimdAdd              0      0.00%     63.44% # Class of committed instruction
system.cpu1.commit.op_class_0::SimdAddAcc            0      0.00%     63.44% # Class of committed instruction
system.cpu1.commit.op_class_0::SimdAlu              0      0.00%     63.44% # Class of committed instruction
system.cpu1.commit.op_class_0::SimdCmp              0      0.00%     63.44% # Class of committed instruction
system.cpu1.commit.op_class_0::SimdCvt              0      0.00%     63.44% # Class of committed instruction
system.cpu1.commit.op_class_0::SimdMisc             0      0.00%     63.44% # Class of committed instruction
system.cpu1.commit.op_class_0::SimdMult             0      0.00%     63.44% # Class of committed instruction
system.cpu1.commit.op_class_0::SimdMultAcc            0      0.00%     63.44% # Class of committed instruction
system.cpu1.commit.op_class_0::SimdShift            0      0.00%     63.44% # Class of committed instruction
system.cpu1.commit.op_class_0::SimdShiftAcc            0      0.00%     63.44% # Class of committed instruction
system.cpu1.commit.op_class_0::SimdDiv              0      0.00%     63.44% # Class of committed instruction
system.cpu1.commit.op_class_0::SimdSqrt             0      0.00%     63.44% # Class of committed instruction
system.cpu1.commit.op_class_0::SimdFloatAdd            0      0.00%     63.44% # Class of committed instruction
system.cpu1.commit.op_class_0::SimdFloatAlu            0      0.00%     63.44% # Class of committed instruction
system.cpu1.commit.op_class_0::SimdFloatCmp            0      0.00%     63.44% # Class of committed instruction
system.cpu1.commit.op_class_0::SimdFloatCvt            0      0.00%     63.44% # Class of committed instruction
system.cpu1.commit.op_class_0::SimdFloatDiv            0      0.00%     63.44% # Class of committed instruction
system.cpu1.commit.op_class_0::SimdFloatMisc            0      0.00%     63.44% # Class of committed instruction
system.cpu1.commit.op_class_0::SimdFloatMult            0      0.00%     63.44% # Class of committed instruction
system.cpu1.commit.op_class_0::SimdFloatMultAcc            0      0.00%     63.44% # Class of committed instruction
system.cpu1.commit.op_class_0::SimdFloatSqrt            0      0.00%     63.44% # Class of committed instruction
system.cpu1.commit.op_class_0::SimdReduceAdd            0      0.00%     63.44% # Class of committed instruction
system.cpu1.commit.op_class_0::SimdReduceAlu            0      0.00%     63.44% # Class of committed instruction
system.cpu1.commit.op_class_0::SimdReduceCmp            0      0.00%     63.44% # Class of committed instruction
system.cpu1.commit.op_class_0::SimdFloatReduceAdd            0      0.00%     63.44% # Class of committed instruction
system.cpu1.commit.op_class_0::SimdFloatReduceCmp            0      0.00%     63.44% # Class of committed instruction
system.cpu1.commit.op_class_0::SimdAes              0      0.00%     63.44% # Class of committed instruction
system.cpu1.commit.op_class_0::SimdAesMix            0      0.00%     63.44% # Class of committed instruction
system.cpu1.commit.op_class_0::SimdSha1Hash            0      0.00%     63.44% # Class of committed instruction
system.cpu1.commit.op_class_0::SimdSha1Hash2            0      0.00%     63.44% # Class of committed instruction
system.cpu1.commit.op_class_0::SimdSha256Hash            0      0.00%     63.44% # Class of committed instruction
system.cpu1.commit.op_class_0::SimdSha256Hash2            0      0.00%     63.44% # Class of committed instruction
system.cpu1.commit.op_class_0::SimdShaSigma2            0      0.00%     63.44% # Class of committed instruction
system.cpu1.commit.op_class_0::SimdShaSigma3            0      0.00%     63.44% # Class of committed instruction
system.cpu1.commit.op_class_0::SimdPredAlu            0      0.00%     63.44% # Class of committed instruction
system.cpu1.commit.op_class_0::MemRead       11204503     29.40%     92.85% # Class of committed instruction
system.cpu1.commit.op_class_0::MemWrite       2725424      7.15%    100.00% # Class of committed instruction
system.cpu1.commit.op_class_0::FloatMemRead            0      0.00%    100.00% # Class of committed instruction
system.cpu1.commit.op_class_0::FloatMemWrite           12      0.00%    100.00% # Class of committed instruction
system.cpu1.commit.op_class_0::IprAccess            0      0.00%    100.00% # Class of committed instruction
system.cpu1.commit.op_class_0::InstPrefetch            0      0.00%    100.00% # Class of committed instruction
system.cpu1.commit.op_class_0::total         38104323                       # Class of committed instruction
system.cpu1.commit.refs                      13929939                       # Number of memory references committed
system.cpu1.commit.swp_count                        0                       # Number of s/w prefetches committed
system.cpu1.commit.vec_insts                        0                       # Number of committed Vector instructions.
system.cpu1.committedInsts                   37198332                       # Number of Instructions Simulated
system.cpu1.committedOps                     38104323                       # Number of Ops (including micro ops) Simulated
system.cpu1.cpi                              5.806822                       # CPI: Cycles Per Instruction
system.cpu1.cpi_total                        5.806822                       # CPI: Total CPI of All Threads
system.cpu1.decode.BlockedCycles            188109066                       # Number of cycles decode is blocked
system.cpu1.decode.BranchMispred               166156                       # Number of times decode detected a branch misprediction
system.cpu1.decode.BranchResolved             5704301                       # Number of times decode resolved a branch
system.cpu1.decode.DecodedInsts              45614763                       # Number of instructions handled by decode
system.cpu1.decode.IdleCycles                 7262890                       # Number of cycles decode is idle
system.cpu1.decode.RunCycles                 17385186                       # Number of cycles decode is running
system.cpu1.decode.SquashCycles                642028                       # Number of cycles decode is squashing
system.cpu1.decode.SquashedInsts               337876                       # Number of squashed instructions handled by decode
system.cpu1.decode.UnblockCycles              2117667                       # Number of cycles decode is unblocking
system.cpu1.dtb.accesses                            0                       # DTB accesses
system.cpu1.dtb.hits                                0                       # DTB hits
system.cpu1.dtb.misses                              0                       # DTB misses
system.cpu1.dtb.read_accesses                       0                       # DTB read accesses
system.cpu1.dtb.read_hits                           0                       # DTB read hits
system.cpu1.dtb.read_misses                         0                       # DTB read misses
system.cpu1.dtb.write_accesses                      0                       # DTB write accesses
system.cpu1.dtb.write_hits                          0                       # DTB write hits
system.cpu1.dtb.write_misses                        0                       # DTB write misses
system.cpu1.fetch.Branches                   11085752                       # Number of branches that fetch encountered
system.cpu1.fetch.CacheLines                  6219481                       # Number of cache lines fetched
system.cpu1.fetch.Cycles                    207376675                       # Number of cycles fetch has run and was not squashing or blocked
system.cpu1.fetch.IcacheSquashes               121077                       # Number of outstanding Icache misses that were squashed
system.cpu1.fetch.IcacheWaitRetryStallCycles            9                       # Number of stall cycles due to full MSHR
system.cpu1.fetch.Insts                      46458609                       # Number of instructions fetch has processed
system.cpu1.fetch.MiscStallCycles                   2                       # Number of cycles fetch has spent waiting on interrupts, or bad addresses, or out of MSHRs
system.cpu1.fetch.SquashCycles                1603326                       # Number of cycles fetch has spent squashing
system.cpu1.fetch.branchRate                 0.051322                       # Number of branch fetches per cycle
system.cpu1.fetch.icacheStallCycles           7338488                       # Number of cycles fetch is stalled on an Icache miss
system.cpu1.fetch.predictedBranches           6225685                       # Number of branches that fetch has predicted taken
system.cpu1.fetch.rate                       0.215082                       # Number of inst fetches per cycle
system.cpu1.fetch.rateDist::samples         215516837                       # Number of instructions fetched each cycle (Total)
system.cpu1.fetch.rateDist::mean             0.219775                       # Number of instructions fetched each cycle (Total)
system.cpu1.fetch.rateDist::stdev            0.662105                       # Number of instructions fetched each cycle (Total)
system.cpu1.fetch.rateDist::underflows              0      0.00%      0.00% # Number of instructions fetched each cycle (Total)
system.cpu1.fetch.rateDist::0               186535496     86.55%     86.55% # Number of instructions fetched each cycle (Total)
system.cpu1.fetch.rateDist::1                17633630      8.18%     94.73% # Number of instructions fetched each cycle (Total)
system.cpu1.fetch.rateDist::2                 6566085      3.05%     97.78% # Number of instructions fetched each cycle (Total)
system.cpu1.fetch.rateDist::3                 3269601      1.52%     99.30% # Number of instructions fetched each cycle (Total)
system.cpu1.fetch.rateDist::4                 1059799      0.49%     99.79% # Number of instructions fetched each cycle (Total)
system.cpu1.fetch.rateDist::5                  198134      0.09%     99.88% # Number of instructions fetched each cycle (Total)
system.cpu1.fetch.rateDist::6                  235349      0.11%     99.99% # Number of instructions fetched each cycle (Total)
system.cpu1.fetch.rateDist::7                    1202      0.00%     99.99% # Number of instructions fetched each cycle (Total)
system.cpu1.fetch.rateDist::8                   17541      0.01%    100.00% # Number of instructions fetched each cycle (Total)
system.cpu1.fetch.rateDist::overflows               0      0.00%    100.00% # Number of instructions fetched each cycle (Total)
system.cpu1.fetch.rateDist::min_value               0                       # Number of instructions fetched each cycle (Total)
system.cpu1.fetch.rateDist::max_value               8                       # Number of instructions fetched each cycle (Total)
system.cpu1.fetch.rateDist::total           215516837                       # Number of instructions fetched each cycle (Total)
system.cpu1.fp_regfile_reads                       12                       # number of floating regfile reads
system.cpu1.idleCycles                         487265                       # Total number of cycles that the CPU has spent unscheduled due to idling
system.cpu1.iew.branchMispredicts              682806                       # Number of branch mispredicts detected at execute
system.cpu1.iew.exec_branches                 9430089                       # Number of branches executed
system.cpu1.iew.exec_nop                            0                       # number of nop insts executed
system.cpu1.iew.exec_rate                    0.191946                       # Inst execution rate
system.cpu1.iew.exec_refs                    15078221                       # number of memory reference insts executed
system.cpu1.iew.exec_stores                   3883133                       # Number of stores executed
system.cpu1.iew.exec_swp                            0                       # number of swp insts executed
system.cpu1.iew.iewBlockCycles              162393528                       # Number of cycles IEW is blocking
system.cpu1.iew.iewDispLoadInsts             11498202                       # Number of dispatched load instructions
system.cpu1.iew.iewDispNonSpecInsts            906557                       # Number of dispatched non-speculative instructions
system.cpu1.iew.iewDispSquashedInsts           684882                       # Number of squashed instructions skipped by dispatch
system.cpu1.iew.iewDispStoreInsts             4103763                       # Number of dispatched store instructions
system.cpu1.iew.iewDispatchedInsts           43147001                       # Number of instructions dispatched to IQ
system.cpu1.iew.iewExecLoadInsts             11195088                       # Number of load instructions executed
system.cpu1.iew.iewExecSquashedInsts           617198                       # Number of squashed instructions skipped in execute
system.cpu1.iew.iewExecutedInsts             41461058                       # Number of executed instructions
system.cpu1.iew.iewIQFullEvents                674027                       # Number of times the IQ has become full, causing a stall
system.cpu1.iew.iewIdleCycles                       0                       # Number of cycles IEW is idle
system.cpu1.iew.iewLSQFullEvents               837069                       # Number of times the LSQ has become full, causing a stall
system.cpu1.iew.iewSquashCycles                642028                       # Number of cycles IEW is squashing
system.cpu1.iew.iewUnblockCycles              2668156                       # Number of cycles IEW is unblocking
system.cpu1.iew.lsq.thread0.blockedLoads            0                       # Number of blocked loads due to partial load-store forwarding
system.cpu1.iew.lsq.thread0.cacheBlocked        30165                       # Number of times an access to memory failed due to the cache being blocked
system.cpu1.iew.lsq.thread0.forwLoads          304716                       # Number of loads that had data forwarded from stores
system.cpu1.iew.lsq.thread0.ignoredResponses         8571                       # Number of memory responses ignored because the instruction is squashed
system.cpu1.iew.lsq.thread0.invAddrLoads            0                       # Number of loads ignored due to an invalid address
system.cpu1.iew.lsq.thread0.invAddrSwpfs            0                       # Number of software prefetches ignored due to an invalid address
system.cpu1.iew.lsq.thread0.memOrderViolation         1677                       # Number of memory ordering violations
system.cpu1.iew.lsq.thread0.rescheduledLoads         4548                       # Number of loads that were rescheduled
system.cpu1.iew.lsq.thread0.squashedLoads      1199520                       # Number of loads squashed
system.cpu1.iew.lsq.thread0.squashedStores       472506                       # Number of stores squashed
system.cpu1.iew.memOrderViolationEvents          1677                       # Number of memory order violations
system.cpu1.iew.predictedNotTakenIncorrect       242827                       # Number of branches that were predicted not taken incorrectly
system.cpu1.iew.predictedTakenIncorrect        439979                       # Number of branches that were predicted taken incorrectly
system.cpu1.iew.wb_consumers                 23380143                       # num instructions consuming a value
system.cpu1.iew.wb_count                     40966110                       # cumulative count of insts written-back
system.cpu1.iew.wb_fanout                    0.826837                       # average fanout of values written-back
system.cpu1.iew.wb_producers                 19331573                       # num instructions producing a value
system.cpu1.iew.wb_rate                      0.189654                       # insts written-back per cycle
system.cpu1.iew.wb_sent                      40985954                       # cumulative count of insts sent to commit
system.cpu1.int_regfile_reads                52471739                       # number of integer regfile reads
system.cpu1.int_regfile_writes               26979203                       # number of integer regfile writes
system.cpu1.ipc                              0.172211                       # IPC: Instructions Per Cycle
system.cpu1.ipc_total                        0.172211                       # IPC: Total IPC of All Threads
system.cpu1.iq.FU_type_0::No_OpClass          1811899      4.31%      4.31% # Type of FU issued
system.cpu1.iq.FU_type_0::IntAlu             24984473     59.38%     63.68% # Type of FU issued
system.cpu1.iq.FU_type_0::IntMult                  47      0.00%     63.68% # Type of FU issued
system.cpu1.iq.FU_type_0::IntDiv                   88      0.00%     63.68% # Type of FU issued
system.cpu1.iq.FU_type_0::FloatAdd                  0      0.00%     63.68% # Type of FU issued
system.cpu1.iq.FU_type_0::FloatCmp                  0      0.00%     63.68% # Type of FU issued
system.cpu1.iq.FU_type_0::FloatCvt                  0      0.00%     63.68% # Type of FU issued
system.cpu1.iq.FU_type_0::FloatMult                 0      0.00%     63.68% # Type of FU issued
system.cpu1.iq.FU_type_0::FloatMultAcc              0      0.00%     63.68% # Type of FU issued
system.cpu1.iq.FU_type_0::FloatDiv                  0      0.00%     63.68% # Type of FU issued
system.cpu1.iq.FU_type_0::FloatMisc                 0      0.00%     63.68% # Type of FU issued
system.cpu1.iq.FU_type_0::FloatSqrt                 0      0.00%     63.68% # Type of FU issued
system.cpu1.iq.FU_type_0::SimdAdd                   0      0.00%     63.68% # Type of FU issued
system.cpu1.iq.FU_type_0::SimdAddAcc                0      0.00%     63.68% # Type of FU issued
system.cpu1.iq.FU_type_0::SimdAlu                   0      0.00%     63.68% # Type of FU issued
system.cpu1.iq.FU_type_0::SimdCmp                   0      0.00%     63.68% # Type of FU issued
system.cpu1.iq.FU_type_0::SimdCvt                   0      0.00%     63.68% # Type of FU issued
system.cpu1.iq.FU_type_0::SimdMisc                  0      0.00%     63.68% # Type of FU issued
system.cpu1.iq.FU_type_0::SimdMult                  0      0.00%     63.68% # Type of FU issued
system.cpu1.iq.FU_type_0::SimdMultAcc               0      0.00%     63.68% # Type of FU issued
system.cpu1.iq.FU_type_0::SimdShift                 0      0.00%     63.68% # Type of FU issued
system.cpu1.iq.FU_type_0::SimdShiftAcc              0      0.00%     63.68% # Type of FU issued
system.cpu1.iq.FU_type_0::SimdDiv                   0      0.00%     63.68% # Type of FU issued
system.cpu1.iq.FU_type_0::SimdSqrt                  0      0.00%     63.68% # Type of FU issued
system.cpu1.iq.FU_type_0::SimdFloatAdd              0      0.00%     63.68% # Type of FU issued
system.cpu1.iq.FU_type_0::SimdFloatAlu              0      0.00%     63.68% # Type of FU issued
system.cpu1.iq.FU_type_0::SimdFloatCmp              0      0.00%     63.68% # Type of FU issued
system.cpu1.iq.FU_type_0::SimdFloatCvt              0      0.00%     63.68% # Type of FU issued
system.cpu1.iq.FU_type_0::SimdFloatDiv              0      0.00%     63.68% # Type of FU issued
system.cpu1.iq.FU_type_0::SimdFloatMisc             0      0.00%     63.68% # Type of FU issued
system.cpu1.iq.FU_type_0::SimdFloatMult             0      0.00%     63.68% # Type of FU issued
system.cpu1.iq.FU_type_0::SimdFloatMultAcc            0      0.00%     63.68% # Type of FU issued
system.cpu1.iq.FU_type_0::SimdFloatSqrt             0      0.00%     63.68% # Type of FU issued
system.cpu1.iq.FU_type_0::SimdReduceAdd             0      0.00%     63.68% # Type of FU issued
system.cpu1.iq.FU_type_0::SimdReduceAlu             0      0.00%     63.68% # Type of FU issued
system.cpu1.iq.FU_type_0::SimdReduceCmp             0      0.00%     63.68% # Type of FU issued
system.cpu1.iq.FU_type_0::SimdFloatReduceAdd            0      0.00%     63.68% # Type of FU issued
system.cpu1.iq.FU_type_0::SimdFloatReduceCmp            0      0.00%     63.68% # Type of FU issued
system.cpu1.iq.FU_type_0::SimdAes                   0      0.00%     63.68% # Type of FU issued
system.cpu1.iq.FU_type_0::SimdAesMix                0      0.00%     63.68% # Type of FU issued
system.cpu1.iq.FU_type_0::SimdSha1Hash              0      0.00%     63.68% # Type of FU issued
system.cpu1.iq.FU_type_0::SimdSha1Hash2             0      0.00%     63.68% # Type of FU issued
system.cpu1.iq.FU_type_0::SimdSha256Hash            0      0.00%     63.68% # Type of FU issued
system.cpu1.iq.FU_type_0::SimdSha256Hash2            0      0.00%     63.68% # Type of FU issued
system.cpu1.iq.FU_type_0::SimdShaSigma2             0      0.00%     63.68% # Type of FU issued
system.cpu1.iq.FU_type_0::SimdShaSigma3             0      0.00%     63.68% # Type of FU issued
system.cpu1.iq.FU_type_0::SimdPredAlu               0      0.00%     63.68% # Type of FU issued
system.cpu1.iq.FU_type_0::MemRead            12261510     29.14%     92.82% # Type of FU issued
system.cpu1.iq.FU_type_0::MemWrite            3020227      7.18%    100.00% # Type of FU issued
system.cpu1.iq.FU_type_0::FloatMemRead              0      0.00%    100.00% # Type of FU issued
system.cpu1.iq.FU_type_0::FloatMemWrite            12      0.00%    100.00% # Type of FU issued
system.cpu1.iq.FU_type_0::IprAccess                 0      0.00%    100.00% # Type of FU issued
system.cpu1.iq.FU_type_0::InstPrefetch              0      0.00%    100.00% # Type of FU issued
system.cpu1.iq.FU_type_0::total              42078256                       # Type of FU issued
system.cpu1.iq.fp_alu_accesses                     15                       # Number of floating point alu accesses
system.cpu1.iq.fp_inst_queue_reads                 27                       # Number of floating instruction queue reads
system.cpu1.iq.fp_inst_queue_wakeup_accesses           12                       # Number of floating instruction queue wakeup accesses
system.cpu1.iq.fp_inst_queue_writes                12                       # Number of floating instruction queue writes
system.cpu1.iq.fu_busy_cnt                    1063459                       # FU busy when requested
system.cpu1.iq.fu_busy_rate                  0.025273                       # FU busy rate (busy events/executed inst)
system.cpu1.iq.fu_full::No_OpClass                  0      0.00%      0.00% # attempts to use FU when none available
system.cpu1.iq.fu_full::IntAlu                 216194     20.33%     20.33% # attempts to use FU when none available
system.cpu1.iq.fu_full::IntMult                     0      0.00%     20.33% # attempts to use FU when none available
system.cpu1.iq.fu_full::IntDiv                      0      0.00%     20.33% # attempts to use FU when none available
system.cpu1.iq.fu_full::FloatAdd                    0      0.00%     20.33% # attempts to use FU when none available
system.cpu1.iq.fu_full::FloatCmp                    0      0.00%     20.33% # attempts to use FU when none available
system.cpu1.iq.fu_full::FloatCvt                    0      0.00%     20.33% # attempts to use FU when none available
system.cpu1.iq.fu_full::FloatMult                   0      0.00%     20.33% # attempts to use FU when none available
system.cpu1.iq.fu_full::FloatMultAcc                0      0.00%     20.33% # attempts to use FU when none available
system.cpu1.iq.fu_full::FloatDiv                    0      0.00%     20.33% # attempts to use FU when none available
system.cpu1.iq.fu_full::FloatMisc                   0      0.00%     20.33% # attempts to use FU when none available
system.cpu1.iq.fu_full::FloatSqrt                   0      0.00%     20.33% # attempts to use FU when none available
system.cpu1.iq.fu_full::SimdAdd                     0      0.00%     20.33% # attempts to use FU when none available
system.cpu1.iq.fu_full::SimdAddAcc                  0      0.00%     20.33% # attempts to use FU when none available
system.cpu1.iq.fu_full::SimdAlu                     0      0.00%     20.33% # attempts to use FU when none available
system.cpu1.iq.fu_full::SimdCmp                     0      0.00%     20.33% # attempts to use FU when none available
system.cpu1.iq.fu_full::SimdCvt                     0      0.00%     20.33% # attempts to use FU when none available
system.cpu1.iq.fu_full::SimdMisc                    0      0.00%     20.33% # attempts to use FU when none available
system.cpu1.iq.fu_full::SimdMult                    0      0.00%     20.33% # attempts to use FU when none available
system.cpu1.iq.fu_full::SimdMultAcc                 0      0.00%     20.33% # attempts to use FU when none available
system.cpu1.iq.fu_full::SimdShift                   0      0.00%     20.33% # attempts to use FU when none available
system.cpu1.iq.fu_full::SimdShiftAcc                0      0.00%     20.33% # attempts to use FU when none available
system.cpu1.iq.fu_full::SimdDiv                     0      0.00%     20.33% # attempts to use FU when none available
system.cpu1.iq.fu_full::SimdSqrt                    0      0.00%     20.33% # attempts to use FU when none available
system.cpu1.iq.fu_full::SimdFloatAdd                0      0.00%     20.33% # attempts to use FU when none available
system.cpu1.iq.fu_full::SimdFloatAlu                0      0.00%     20.33% # attempts to use FU when none available
system.cpu1.iq.fu_full::SimdFloatCmp                0      0.00%     20.33% # attempts to use FU when none available
system.cpu1.iq.fu_full::SimdFloatCvt                0      0.00%     20.33% # attempts to use FU when none available
system.cpu1.iq.fu_full::SimdFloatDiv                0      0.00%     20.33% # attempts to use FU when none available
system.cpu1.iq.fu_full::SimdFloatMisc               0      0.00%     20.33% # attempts to use FU when none available
system.cpu1.iq.fu_full::SimdFloatMult               0      0.00%     20.33% # attempts to use FU when none available
system.cpu1.iq.fu_full::SimdFloatMultAcc            0      0.00%     20.33% # attempts to use FU when none available
system.cpu1.iq.fu_full::SimdFloatSqrt               0      0.00%     20.33% # attempts to use FU when none available
system.cpu1.iq.fu_full::SimdReduceAdd               0      0.00%     20.33% # attempts to use FU when none available
system.cpu1.iq.fu_full::SimdReduceAlu               0      0.00%     20.33% # attempts to use FU when none available
system.cpu1.iq.fu_full::SimdReduceCmp               0      0.00%     20.33% # attempts to use FU when none available
system.cpu1.iq.fu_full::SimdFloatReduceAdd            0      0.00%     20.33% # attempts to use FU when none available
system.cpu1.iq.fu_full::SimdFloatReduceCmp            0      0.00%     20.33% # attempts to use FU when none available
system.cpu1.iq.fu_full::SimdAes                     0      0.00%     20.33% # attempts to use FU when none available
system.cpu1.iq.fu_full::SimdAesMix                  0      0.00%     20.33% # attempts to use FU when none available
system.cpu1.iq.fu_full::SimdSha1Hash                0      0.00%     20.33% # attempts to use FU when none available
system.cpu1.iq.fu_full::SimdSha1Hash2               0      0.00%     20.33% # attempts to use FU when none available
system.cpu1.iq.fu_full::SimdSha256Hash              0      0.00%     20.33% # attempts to use FU when none available
system.cpu1.iq.fu_full::SimdSha256Hash2             0      0.00%     20.33% # attempts to use FU when none available
system.cpu1.iq.fu_full::SimdShaSigma2               0      0.00%     20.33% # attempts to use FU when none available
system.cpu1.iq.fu_full::SimdShaSigma3               0      0.00%     20.33% # attempts to use FU when none available
system.cpu1.iq.fu_full::SimdPredAlu                 0      0.00%     20.33% # attempts to use FU when none available
system.cpu1.iq.fu_full::MemRead                748942     70.43%     90.75% # attempts to use FU when none available
[...]
system.cpu1.dcache.WriteReq_mshr_miss_latency::.cpu1.data  64547257348                       # number of WriteReq MSHR miss cycles
system.cpu1.dcache.WriteReq_mshr_miss_latency::total  64547257348                       # number of WriteReq MSHR miss cycles
system.cpu1.dcache.WriteReq_mshr_miss_rate::.cpu1.data     0.057081                       # mshr miss rate for WriteReq accesses
system.cpu1.dcache.WriteReq_mshr_miss_rate::total     0.057081                       # mshr miss rate for WriteReq accesses
system.cpu1.dcache.WriteReq_avg_mshr_miss_latency::.cpu1.data 87313.336780                       # average WriteReq mshr miss latency
system.cpu1.dcache.WriteReq_avg_mshr_miss_latency::total 87313.336780                       # average WriteReq mshr miss latency
system.cpu1.dcache.LoadLockedReq_hits::.cpu1.data         7485                       # number of LoadLockedReq hits
system.cpu1.dcache.LoadLockedReq_hits::total         7485                       # number of LoadLockedReq hits
system.cpu1.dcache.LoadLockedReq_misses::.cpu1.data         1804                       # number of LoadLockedReq misses
system.cpu1.dcache.LoadLockedReq_misses::total         1804                       # number of LoadLockedReq misses
system.cpu1.dcache.LoadLockedReq_miss_latency::.cpu1.data     33966000                       # number of LoadLockedReq miss cycles
system.cpu1.dcache.LoadLockedReq_miss_latency::total     33966000                       # number of LoadLockedReq miss cycles
system.cpu1.dcache.LoadLockedReq_accesses::.cpu1.data         9289                       # number of LoadLockedReq accesses(hits+misses)
system.cpu1.dcache.LoadLockedReq_accesses::total         9289                       # number of LoadLockedReq accesses(hits+misses)
system.cpu1.dcache.LoadLockedReq_miss_rate::.cpu1.data     0.194208                       # miss rate for LoadLockedReq accesses
system.cpu1.dcache.LoadLockedReq_miss_rate::total     0.194208                       # miss rate for LoadLockedReq accesses
system.cpu1.dcache.LoadLockedReq_avg_miss_latency::.cpu1.data 18828.159645                       # average LoadLockedReq miss latency
system.cpu1.dcache.LoadLockedReq_avg_miss_latency::total 18828.159645                       # average LoadLockedReq miss latency
system.cpu1.dcache.LoadLockedReq_mshr_hits::.cpu1.data          552                       # number of LoadLockedReq MSHR hits
system.cpu1.dcache.LoadLockedReq_mshr_hits::total          552                       # number of LoadLockedReq MSHR hits
system.cpu1.dcache.LoadLockedReq_mshr_misses::.cpu1.data         1252                       # number of LoadLockedReq MSHR misses
system.cpu1.dcache.LoadLockedReq_mshr_misses::total         1252                       # number of LoadLockedReq MSHR misses
system.cpu1.dcache.LoadLockedReq_mshr_miss_latency::.cpu1.data     23906000                       # number of LoadLockedReq MSHR miss cycles
system.cpu1.dcache.LoadLockedReq_mshr_miss_latency::total     23906000                       # number of LoadLockedReq MSHR miss cycles
system.cpu1.dcache.LoadLockedReq_mshr_miss_rate::.cpu1.data     0.134783                       # mshr miss rate for LoadLockedReq accesses
system.cpu1.dcache.LoadLockedReq_mshr_miss_rate::total     0.134783                       # mshr miss rate for LoadLockedReq accesses
system.cpu1.dcache.LoadLockedReq_avg_mshr_miss_latency::.cpu1.data 19094.249201                       # average LoadLockedReq mshr miss latency
system.cpu1.dcache.LoadLockedReq_avg_mshr_miss_latency::total 19094.249201                       # average LoadLockedReq mshr miss latency
system.cpu1.dcache.StoreCondReq_hits::.cpu1.data         3532                       # number of StoreCondReq hits
system.cpu1.dcache.StoreCondReq_hits::total         3532                       # number of StoreCondReq hits
system.cpu1.dcache.StoreCondReq_misses::.cpu1.data         3644                       # number of StoreCondReq misses
system.cpu1.dcache.StoreCondReq_misses::total         3644                       # number of StoreCondReq misses
system.cpu1.dcache.StoreCondReq_miss_latency::.cpu1.data     33412000                       # number of StoreCondReq miss cycles
system.cpu1.dcache.StoreCondReq_miss_latency::total     33412000                       # number of StoreCondReq miss cycles
system.cpu1.dcache.StoreCondReq_accesses::.cpu1.data         7176                       # number of StoreCondReq accesses(hits+misses)
system.cpu1.dcache.StoreCondReq_accesses::total         7176                       # number of StoreCondReq accesses(hits+misses)
system.cpu1.dcache.StoreCondReq_miss_rate::.cpu1.data     0.507804                       # miss rate for StoreCondReq accesses
system.cpu1.dcache.StoreCondReq_miss_rate::total     0.507804                       # miss rate for StoreCondReq accesses
system.cpu1.dcache.StoreCondReq_avg_miss_latency::.cpu1.data  9169.045005                       # average StoreCondReq miss latency
system.cpu1.dcache.StoreCondReq_avg_miss_latency::total  9169.045005                       # average StoreCondReq miss latency
system.cpu1.dcache.StoreCondReq_mshr_misses::.cpu1.data         3581                       # number of StoreCondReq MSHR misses
system.cpu1.dcache.StoreCondReq_mshr_misses::total         3581                       # number of StoreCondReq MSHR misses
system.cpu1.dcache.StoreCondReq_mshr_miss_latency::.cpu1.data     30008000                       # number of StoreCondReq MSHR miss cycles
system.cpu1.dcache.StoreCondReq_mshr_miss_latency::total     30008000                       # number of StoreCondReq MSHR miss cycles
system.cpu1.dcache.StoreCondReq_mshr_miss_rate::.cpu1.data     0.499025                       # mshr miss rate for StoreCondReq accesses
system.cpu1.dcache.StoreCondReq_mshr_miss_rate::total     0.499025                       # mshr miss rate for StoreCondReq accesses
system.cpu1.dcache.StoreCondReq_avg_mshr_miss_latency::.cpu1.data  8379.782184                       # average StoreCondReq mshr miss latency
system.cpu1.dcache.StoreCondReq_avg_mshr_miss_latency::total  8379.782184                       # average StoreCondReq mshr miss latency
system.cpu1.dcache.StoreCondFailReq_miss_latency::.cpu1.data      2345000                       # number of StoreCondFailReq miss cycles
system.cpu1.dcache.StoreCondFailReq_miss_latency::total      2345000                       # number of StoreCondFailReq miss cycles
system.cpu1.dcache.StoreCondFailReq_avg_miss_latency::.cpu1.data          inf                       # average StoreCondFailReq miss latency
system.cpu1.dcache.StoreCondFailReq_avg_miss_latency::total          inf                       # average StoreCondFailReq miss latency
system.cpu1.dcache.StoreCondFailReq_mshr_miss_latency::.cpu1.data      2168000                       # number of StoreCondFailReq MSHR miss cycles
system.cpu1.dcache.StoreCondFailReq_mshr_miss_latency::total      2168000                       # number of StoreCondFailReq MSHR miss cycles
system.cpu1.dcache.StoreCondFailReq_avg_mshr_miss_latency::.cpu1.data          inf                       # average StoreCondFailReq mshr miss latency
system.cpu1.dcache.StoreCondFailReq_avg_mshr_miss_latency::total          inf                       # average StoreCondFailReq mshr miss latency
system.cpu1.dcache.SwapReq_hits::.cpu1.data         2250                       # number of SwapReq hits
system.cpu1.dcache.SwapReq_hits::total           2250                       # number of SwapReq hits
system.cpu1.dcache.SwapReq_misses::.cpu1.data       100367                       # number of SwapReq misses
system.cpu1.dcache.SwapReq_misses::total       100367                       # number of SwapReq misses
system.cpu1.dcache.SwapReq_miss_latency::.cpu1.data   2375074499                       # number of SwapReq miss cycles
system.cpu1.dcache.SwapReq_miss_latency::total   2375074499                       # number of SwapReq miss cycles
system.cpu1.dcache.SwapReq_accesses::.cpu1.data       102617                       # number of SwapReq accesses(hits+misses)
system.cpu1.dcache.SwapReq_accesses::total       102617                       # number of SwapReq accesses(hits+misses)
system.cpu1.dcache.SwapReq_miss_rate::.cpu1.data     0.978074                       # miss rate for SwapReq accesses
system.cpu1.dcache.SwapReq_miss_rate::total     0.978074                       # miss rate for SwapReq accesses
system.cpu1.dcache.SwapReq_avg_miss_latency::.cpu1.data 23663.898483                       # average SwapReq miss latency
system.cpu1.dcache.SwapReq_avg_miss_latency::total 23663.898483                       # average SwapReq miss latency
system.cpu1.dcache.SwapReq_mshr_hits::.cpu1.data            2                       # number of SwapReq MSHR hits
system.cpu1.dcache.SwapReq_mshr_hits::total            2                       # number of SwapReq MSHR hits
system.cpu1.dcache.SwapReq_mshr_misses::.cpu1.data       100365                       # number of SwapReq MSHR misses
system.cpu1.dcache.SwapReq_mshr_misses::total       100365                       # number of SwapReq MSHR misses
system.cpu1.dcache.SwapReq_mshr_miss_latency::.cpu1.data   2274703499                       # number of SwapReq MSHR miss cycles
system.cpu1.dcache.SwapReq_mshr_miss_latency::total   2274703499                       # number of SwapReq MSHR miss cycles
system.cpu1.dcache.SwapReq_mshr_miss_rate::.cpu1.data     0.978054                       # mshr miss rate for SwapReq accesses
system.cpu1.dcache.SwapReq_mshr_miss_rate::total     0.978054                       # mshr miss rate for SwapReq accesses
system.cpu1.dcache.SwapReq_avg_mshr_miss_latency::.cpu1.data 22664.310258                       # average SwapReq mshr miss latency
system.cpu1.dcache.SwapReq_avg_mshr_miss_latency::total 22664.310258                       # average SwapReq mshr miss latency
system.cpu1.dcache.tags.pwrStateResidencyTicks::UNDEFINED 1836744900500                       # Cumulative time (in ticks) in various power states
system.cpu1.dcache.tags.tagsinuse           31.954414                       # Cycle average of tags in use
system.cpu1.dcache.tags.total_refs          150264444                       # Total number of references to valid blocks.
system.cpu1.dcache.tags.sampled_refs         63324395                       # Sample count of references to valid blocks.
system.cpu1.dcache.tags.avg_refs             2.372931                       # Average number of references to valid blocks.
system.cpu1.dcache.tags.warmup_cycle                0                       # Cycle when the warmup percentage was hit.
system.cpu1.dcache.tags.occ_blocks::.cpu1.data    31.954414                       # Average occupied blocks per requestor
system.cpu1.dcache.tags.occ_percent::.cpu1.data     0.998575                       # Average percentage of cache occupancy
system.cpu1.dcache.tags.occ_percent::total     0.998575                       # Average percentage of cache occupancy
system.cpu1.dcache.tags.occ_task_id_blocks::1024           28                       # Occupied blocks per task id
system.cpu1.dcache.tags.age_task_id_blocks_1024::1           28                       # Occupied blocks per task id
system.cpu1.dcache.tags.occ_task_id_percent::1024     0.875000                       # Percentage of cache occupancy per task id
system.cpu1.dcache.tags.tag_accesses        467827536                       # Number of tag accesses
system.cpu1.dcache.tags.data_accesses       467827536                       # Number of data accesses
system.cpu_clk_domain.clock                       500                       # Clock period in ticks
system.tol2bus.pwrStateResidencyTicks::UNDEFINED 1836744900500                       # Cumulative time (in ticks) in various power states
system.tol2bus.trans_dist::ReadResp         250143940                       # Transaction distribution
system.tol2bus.trans_dist::ReadRespWithInvalidate           20                       # Transaction distribution
system.tol2bus.trans_dist::WritebackDirty     12209838                       # Transaction distribution
system.tol2bus.trans_dist::WritebackClean    246255233                       # Transaction distribution
system.tol2bus.trans_dist::CleanEvict       436731707                       # Transaction distribution
system.tol2bus.trans_dist::UpgradeReq          146247                       # Transaction distribution
system.tol2bus.trans_dist::SCUpgradeReq         11834                       # Transaction distribution
system.tol2bus.trans_dist::UpgradeResp         158081                       # Transaction distribution
system.tol2bus.trans_dist::SCUpgradeFailReq          785                       # Transaction distribution
system.tol2bus.trans_dist::UpgradeFailResp          785                       # Transaction distribution
system.tol2bus.trans_dist::ReadExReq          3259284                       # Transaction distribution
system.tol2bus.trans_dist::ReadExResp         3259284                       # Transaction distribution
system.tol2bus.trans_dist::ReadCleanReq        255870                       # Transaction distribution
system.tol2bus.trans_dist::ReadSharedReq    249888091                       # Transaction distribution
system.tol2bus.pkt_count_system.cpu0.icache.mem_side::system.l2.cpu_side       455077                       # Packet count per connected master and slave (bytes)
system.tol2bus.pkt_count_system.cpu0.dcache.mem_side::system.l2.cpu_side    189419715                       # Packet count per connected master and slave (bytes)
system.tol2bus.pkt_count_system.cpu1.icache.mem_side::system.l2.cpu_side       105381                       # Packet count per connected master and slave (bytes)
system.tol2bus.pkt_count_system.cpu1.dcache.mem_side::system.l2.cpu_side    189839215                       # Packet count per connected master and slave (bytes)
system.tol2bus.pkt_count_system.cpu2.icache.mem_side::system.l2.cpu_side       103242                       # Packet count per connected master and slave (bytes)
system.tol2bus.pkt_count_system.cpu2.dcache.mem_side::system.l2.cpu_side    189823416                       # Packet count per connected master and slave (bytes)
system.tol2bus.pkt_count_system.cpu3.icache.mem_side::system.l2.cpu_side       103908                       # Packet count per connected master and slave (bytes)
system.tol2bus.pkt_count_system.cpu3.dcache.mem_side::system.l2.cpu_side    189818334                       # Packet count per connected master and slave (bytes)
system.tol2bus.pkt_count::total             759668288                       # Packet count per connected master and slave (bytes)
system.tol2bus.pkt_size_system.cpu0.icache.mem_side::system.l2.cpu_side     19416576                       # Cumulative packet size per connected master and slave (bytes)
system.tol2bus.pkt_size_system.cpu0.dcache.mem_side::system.l2.cpu_side   8075807872                       # Cumulative packet size per connected master and slave (bytes)
system.tol2bus.pkt_size_system.cpu1.icache.mem_side::system.l2.cpu_side      4496256                       # Cumulative packet size per connected master and slave (bytes)
system.tol2bus.pkt_size_system.cpu1.dcache.mem_side::system.l2.cpu_side   8093845184                       # Cumulative packet size per connected master and slave (bytes)
system.tol2bus.pkt_size_system.cpu2.icache.mem_side::system.l2.cpu_side      4404992                       # Cumulative packet size per connected master and slave (bytes)
system.tol2bus.pkt_size_system.cpu2.dcache.mem_side::system.l2.cpu_side   8093264064                       # Cumulative packet size per connected master and slave (bytes)
system.tol2bus.pkt_size_system.cpu3.icache.mem_side::system.l2.cpu_side      4433408                       # Cumulative packet size per connected master and slave (bytes)
system.tol2bus.pkt_size_system.cpu3.dcache.mem_side::system.l2.cpu_side   8092929984                       # Cumulative packet size per connected master and slave (bytes)
system.tol2bus.pkt_size::total            32388598336                       # Cumulative packet size per connected master and slave (bytes)
system.tol2bus.snoops                       442652711                       # Total snoops (count)
system.tol2bus.snoopTraffic                 371024064                       # Total snoop traffic (bytes)
system.tol2bus.snoop_fanout::samples        695683016                       # Request fanout histogram
system.tol2bus.snoop_fanout::mean            0.384606                       # Request fanout histogram
system.tol2bus.snoop_fanout::stdev           0.543517                       # Request fanout histogram
system.tol2bus.snoop_fanout::underflows             0      0.00%      0.00% # Request fanout histogram
system.tol2bus.snoop_fanout::0              446394118     64.17%     64.17% # Request fanout histogram
system.tol2bus.snoop_fanout::1              233091447     33.51%     97.67% # Request fanout histogram
system.tol2bus.snoop_fanout::2               14195840      2.04%     99.71% # Request fanout histogram
system.tol2bus.snoop_fanout::3                1926000      0.28%     99.99% # Request fanout histogram
system.tol2bus.snoop_fanout::4                  75611      0.01%    100.00% # Request fanout histogram
system.tol2bus.snoop_fanout::5                      0      0.00%    100.00% # Request fanout histogram
system.tol2bus.snoop_fanout::6                      0      0.00%    100.00% # Request fanout histogram
system.tol2bus.snoop_fanout::7                      0      0.00%    100.00% # Request fanout histogram
system.tol2bus.snoop_fanout::8                      0      0.00%    100.00% # Request fanout histogram
system.tol2bus.snoop_fanout::overflows              0      0.00%    100.00% # Request fanout histogram
system.tol2bus.snoop_fanout::min_value              0                       # Request fanout histogram
system.tol2bus.snoop_fanout::max_value              4                       # Request fanout histogram
system.tol2bus.snoop_fanout::total          695683016                       # Request fanout histogram
system.tol2bus.reqLayer0.occupancy       506408769396                       # Layer occupancy (ticks)
system.tol2bus.reqLayer0.utilization             27.6                       # Layer utilization (%)
system.tol2bus.respLayer5.occupancy       95293445133                       # Layer occupancy (ticks)
system.tol2bus.respLayer5.utilization             5.2                       # Layer utilization (%)
system.tol2bus.respLayer4.occupancy          53578212                       # Layer occupancy (ticks)
system.tol2bus.respLayer4.utilization             0.0                       # Layer utilization (%)
system.tol2bus.respLayer7.occupancy       95291177530                       # Layer occupancy (ticks)
system.tol2bus.respLayer7.utilization             5.2                       # Layer utilization (%)
system.tol2bus.respLayer6.occupancy          53866413                       # Layer occupancy (ticks)
system.tol2bus.respLayer6.utilization             0.0                       # Layer utilization (%)
system.tol2bus.respLayer1.occupancy       95095274241                       # Layer occupancy (ticks)
system.tol2bus.respLayer1.utilization             5.2                       # Layer utilization (%)
system.tol2bus.respLayer0.occupancy         228055786                       # Layer occupancy (ticks)
system.tol2bus.respLayer0.utilization             0.0                       # Layer utilization (%)
system.tol2bus.respLayer3.occupancy       95302373949                       # Layer occupancy (ticks)
system.tol2bus.respLayer3.utilization             5.2                       # Layer utilization (%)
system.tol2bus.respLayer2.occupancy          54487908                       # Layer occupancy (ticks)
system.tol2bus.respLayer2.utilization             0.0                       # Layer utilization (%)

---------- End Simulation Statistics   ----------
