
---------- Begin Simulation Statistics ----------
final_tick                               385021118500                       # Number of ticks from beginning of simulation (restored from checkpoints and never reset)
host_inst_rate                                 104043                       # Simulator instruction rate (inst/s)
host_mem_usage                                 738536                       # Number of bytes of host memory used
host_op_rate                                   104043                       # Simulator op (including micro ops) rate (op/s)
host_seconds                                  4254.05                       # Real time elapsed on the host
host_tick_rate                               90506930                       # Simulator tick rate (ticks/s)
sim_freq                                 1000000000000                       # Frequency of simulated ticks
sim_insts                                   442602318                       # Number of instructions simulated
sim_ops                                     442604609                       # Number of ops (including micro ops) simulated
sim_seconds                                  0.385021                       # Number of seconds simulated
sim_ticks                                385021118500                       # Number of ticks simulated
system.cpu0.branchPred.BTBCorrect                   0                       # Number of correct BTB predictions (this stat may not work properly.
system.cpu0.branchPred.BTBHitPct            87.401536                       # BTB Hit Percentage
system.cpu0.branchPred.BTBHits               56560903                       # Number of BTB hits
system.cpu0.branchPred.BTBLookups            64713855                       # Number of BTB lookups
system.cpu0.branchPred.RASInCorrect                 0                       # Number of incorrect RAS predictions.
system.cpu0.branchPred.condIncorrect          4608240                       # Number of conditional branches incorrect
system.cpu0.branchPred.condPredicted         88760317                       # Number of conditional branches predicted
system.cpu0.branchPred.indirectHits           7703513                       # Number of indirect target hits.
system.cpu0.branchPred.indirectLookups        7707215                       # Number of indirect predictor lookups.
system.cpu0.branchPred.indirectMisses            3702                       # Number of indirect misses.
system.cpu0.branchPred.lookups              113250376                       # Number of BP lookups
system.cpu0.branchPred.usedRAS                      0                       # Number of times the RAS was used to get a target.
system.cpu0.branchPredindirectMispredicted       821528                       # Number of mispredicted indirect branches.
system.cpu0.commit.amos                           352                       # Number of atomic instructions committed
system.cpu0.commit.branchMispredicts          2831382                       # The number of times a branch was mispredicted
system.cpu0.commit.branches                 109760081                       # Number of branches committed
system.cpu0.commit.bw_lim_events             12257634                       # number cycles where commit BW limit reached
system.cpu0.commit.commitNonSpecStalls           4642                       # The number of times commit has been forced to stall to communicate backwards
system.cpu0.commit.commitSquashedInsts       12167857                       # The number of squashed insts skipped by commit
system.cpu0.commit.committedInsts           439809948                       # Number of instructions committed
system.cpu0.commit.committedOps             439811488                       # Number of ops (including micro ops) committed
system.cpu0.commit.committed_per_cycle::samples    705800441                       # Number of insts commited each cycle
system.cpu0.commit.committed_per_cycle::mean     0.623139                       # Number of insts commited each cycle
system.cpu0.commit.committed_per_cycle::stdev     1.368258                       # Number of insts commited each cycle
system.cpu0.commit.committed_per_cycle::underflows            0      0.00%      0.00% # Number of insts commited each cycle
system.cpu0.commit.committed_per_cycle::0    489424679     69.34%     69.34% # Number of insts commited each cycle
system.cpu0.commit.committed_per_cycle::1    129027419     18.28%     87.62% # Number of insts commited each cycle
system.cpu0.commit.committed_per_cycle::2     32622581      4.62%     92.25% # Number of insts commited each cycle
system.cpu0.commit.committed_per_cycle::3     30875971      4.37%     96.62% # Number of insts commited each cycle
system.cpu0.commit.committed_per_cycle::4      7219606      1.02%     97.64% # Number of insts commited each cycle
system.cpu0.commit.committed_per_cycle::5      2014218      0.29%     97.93% # Number of insts commited each cycle
system.cpu0.commit.committed_per_cycle::6       607923      0.09%     98.02% # Number of insts commited each cycle
system.cpu0.commit.committed_per_cycle::7      1750410      0.25%     98.26% # Number of insts commited each cycle
system.cpu0.commit.committed_per_cycle::8     12257634      1.74%    100.00% # Number of insts commited each cycle
system.cpu0.commit.committed_per_cycle::overflows            0      0.00%    100.00% # Number of insts commited each cycle
system.cpu0.commit.committed_per_cycle::min_value            0                       # Number of insts commited each cycle
system.cpu0.commit.committed_per_cycle::max_value            8                       # Number of insts commited each cycle
system.cpu0.commit.committed_per_cycle::total    705800441                       # Number of insts commited each cycle
system.cpu0.commit.fp_insts                        16                       # Number of committed floating point instructions.
system.cpu0.commit.function_calls             9032766                       # Number of function calls committed.
system.cpu0.commit.int_insts                425534076                       # Number of committed integer instructions.
system.cpu0.commit.loads                    138984987                       # Number of loads committed
system.cpu0.commit.membars                       1885                       # Number of memory barriers committed
system.cpu0.commit.op_class_0::No_OpClass         1885      0.00%      0.00% # Class of committed instruction
system.cpu0.commit.op_class_0::IntAlu       241818617     54.98%     54.98% # Class of committed instruction
system.cpu0.commit.op_class_0::IntMult        4267412      0.97%     55.95% # Class of committed instruction
system.cpu0.commit.op_class_0::IntDiv          819658      0.19%     56.14% # Class of committed instruction
system.cpu0.commit.op_class_0::FloatAdd             0      0.00%     56.14% # Class of committed instruction
system.cpu0.commit.op_class_0::FloatCmp             0      0.00%     56.14% # Class of committed instruction
system.cpu0.commit.op_class_0::FloatCvt             0      0.00%     56.14% # Class of committed instruction
system.cpu0.commit.op_class_0::FloatMult            0      0.00%     56.14% # Class of committed instruction
system.cpu0.commit.op_class_0::FloatMultAcc            0      0.00%     56.14% # Class of committed instruction
system.cpu0.commit.op_class_0::FloatDiv             0      0.00%     56.14% # Class of committed instruction
system.cpu0.commit.op_class_0::FloatMisc            0      0.00%     56.14% # Class of committed instruction
system.cpu0.commit.op_class_0::FloatSqrt            0      0.00%     56.14% # Class of committed instruction
system.cpu0.commit.op_class_0::SimdAdd              0      0.00%     56.14% # Class of committed instruction
system.cpu0.commit.op_class_0::SimdAddAcc            0      0.00%     56.14% # Class of committed instruction
system.cpu0.commit.op_class_0::SimdAlu              0      0.00%     56.14% # Class of committed instruction
system.cpu0.commit.op_class_0::SimdCmp              0      0.00%     56.14% # Class of committed instruction
system.cpu0.commit.op_class_0::SimdCvt              0      0.00%     56.14% # Class of committed instruction
system.cpu0.commit.op_class_0::SimdMisc             0      0.00%     56.14% # Class of committed instruction
system.cpu0.commit.op_class_0::SimdMult             0      0.00%     56.14% # Class of committed instruction
system.cpu0.commit.op_class_0::SimdMultAcc            0      0.00%     56.14% # Class of committed instruction
system.cpu0.commit.op_class_0::SimdShift            0      0.00%     56.14% # Class of committed instruction
system.cpu0.commit.op_class_0::SimdShiftAcc            0      0.00%     56.14% # Class of committed instruction
system.cpu0.commit.op_class_0::SimdDiv              0      0.00%     56.14% # Class of committed instruction
system.cpu0.commit.op_class_0::SimdSqrt             0      0.00%     56.14% # Class of committed instruction
system.cpu0.commit.op_class_0::SimdFloatAdd            0      0.00%     56.14% # Class of committed instruction
system.cpu0.commit.op_class_0::SimdFloatAlu            0      0.00%     56.14% # Class of committed instruction
system.cpu0.commit.op_class_0::SimdFloatCmp            0      0.00%     56.14% # Class of committed instruction
system.cpu0.commit.op_class_0::SimdFloatCvt            0      0.00%     56.14% # Class of committed instruction
system.cpu0.commit.op_class_0::SimdFloatDiv            0      0.00%     56.14% # Class of committed instruction
system.cpu0.commit.op_class_0::SimdFloatMisc            0      0.00%     56.14% # Class of committed instruction
system.cpu0.commit.op_class_0::SimdFloatMult            0      0.00%     56.14% # Class of committed instruction
system.cpu0.commit.op_class_0::SimdFloatMultAcc            0      0.00%     56.14% # Class of committed instruction
system.cpu0.commit.op_class_0::SimdFloatSqrt            0      0.00%     56.14% # Class of committed instruction
system.cpu0.commit.op_class_0::SimdReduceAdd            0      0.00%     56.14% # Class of committed instruction
system.cpu0.commit.op_class_0::SimdReduceAlu            0      0.00%     56.14% # Class of committed instruction
system.cpu0.commit.op_class_0::SimdReduceCmp            0      0.00%     56.14% # Class of committed instruction
system.cpu0.commit.op_class_0::SimdFloatReduceAdd            0      0.00%     56.14% # Class of committed instruction
system.cpu0.commit.op_class_0::SimdFloatReduceCmp            0      0.00%     56.14% # Class of committed instruction
system.cpu0.commit.op_class_0::SimdAes              0      0.00%     56.14% # Class of committed instruction
system.cpu0.commit.op_class_0::SimdAesMix            0      0.00%     56.14% # Class of committed instruction
system.cpu0.commit.op_class_0::SimdSha1Hash            0      0.00%     56.14% # Class of committed instruction
system.cpu0.commit.op_class_0::SimdSha1Hash2            0      0.00%     56.14% # Class of committed instruction
system.cpu0.commit.op_class_0::SimdSha256Hash            0      0.00%     56.14% # Class of committed instruction
system.cpu0.commit.op_class_0::SimdSha256Hash2            0      0.00%     56.14% # Class of committed instruction
system.cpu0.commit.op_class_0::SimdShaSigma2            0      0.00%     56.14% # Class of committed instruction
system.cpu0.commit.op_class_0::SimdShaSigma3            0      0.00%     56.14% # Class of committed instruction
system.cpu0.commit.op_class_0::SimdPredAlu            0      0.00%     56.14% # Class of committed instruction
system.cpu0.commit.op_class_0::MemRead      138985339     31.60%     87.74% # Class of committed instruction
system.cpu0.commit.op_class_0::MemWrite      53918561     12.26%    100.00% # Class of committed instruction
system.cpu0.commit.op_class_0::FloatMemRead            0      0.00%    100.00% # Class of committed instruction
system.cpu0.commit.op_class_0::FloatMemWrite           16      0.00%    100.00% # Class of committed instruction
system.cpu0.commit.op_class_0::IprAccess            0      0.00%    100.00% # Class of committed instruction
system.cpu0.commit.op_class_0::InstPrefetch            0      0.00%    100.00% # Class of committed instruction
system.cpu0.commit.op_class_0::total        439811488                       # Class of committed instruction
system.cpu0.commit.refs                     192903916                       # Number of memory references committed
system.cpu0.commit.swp_count                        0                       # Number of s/w prefetches committed
system.cpu0.commit.vec_insts                        0                       # Number of committed Vector instructions.
system.cpu0.committedInsts                  439809948                       # Number of Instructions Simulated
system.cpu0.committedOps                    439811488                       # Number of Ops (including micro ops) Simulated
system.cpu0.cpi                              1.750851                       # CPI: Cycles Per Instruction
system.cpu0.cpi_total                        1.750851                       # CPI: Total CPI of All Threads
system.cpu0.decode.BlockedCycles             13298660                       # Number of cycles decode is blocked
system.cpu0.decode.BranchMispred              1777364                       # Number of times decode detected a branch misprediction
system.cpu0.decode.BranchResolved            56534894                       # Number of times decode resolved a branch
system.cpu0.decode.DecodedInsts             458327419                       # Number of instructions handled by decode
system.cpu0.decode.IdleCycles               364842337                       # Number of cycles decode is idle
system.cpu0.decode.RunCycles                327903971                       # Number of cycles decode is running
system.cpu0.decode.SquashCycles               2836091                       # Number of cycles decode is squashing
system.cpu0.decode.SquashedInsts              4239334                       # Number of squashed instructions handled by decode
system.cpu0.decode.UnblockCycles               389228                       # Number of cycles decode is unblocking
system.cpu0.dtb.accesses                            0                       # DTB accesses
system.cpu0.dtb.hits                                0                       # DTB hits
system.cpu0.dtb.misses                              0                       # DTB misses
system.cpu0.dtb.read_accesses                       0                       # DTB read accesses
system.cpu0.dtb.read_hits                           0                       # DTB read hits
system.cpu0.dtb.read_misses                         0                       # DTB read misses
system.cpu0.dtb.write_accesses                      0                       # DTB write accesses
system.cpu0.dtb.write_hits                          0                       # DTB write hits
system.cpu0.dtb.write_misses                        0                       # DTB write misses
system.cpu0.fetch.Branches                  113250376                       # Number of branches that fetch encountered
system.cpu0.fetch.CacheLines                 85265558                       # Number of cache lines fetched
system.cpu0.fetch.Cycles                    347330522                       # Number of cycles fetch has run and was not squashing or blocked
system.cpu0.fetch.IcacheSquashes              1855249                       # Number of outstanding Icache misses that were squashed
system.cpu0.fetch.IcacheWaitRetryStallCycles           12                       # Number of stall cycles due to full MSHR
system.cpu0.fetch.Insts                     464558888                       # Number of instructions fetch has processed
system.cpu0.fetch.MiscStallCycles                  72                       # Number of cycles fetch has spent waiting on interrupts, or bad addresses, or out of MSHRs
system.cpu0.fetch.PendingTrapStallCycles          413                       # Number of stall cycles due to pending traps
system.cpu0.fetch.SquashCycles                9226026                       # Number of cycles fetch has spent squashing
system.cpu0.fetch.branchRate                 0.147070                       # Number of branch fetches per cycle
system.cpu0.fetch.icacheStallCycles         357326255                       # Number of cycles fetch is stalled on an Icache miss
system.cpu0.fetch.predictedBranches          64264416                       # Number of branches that fetch has predicted taken
system.cpu0.fetch.rate                       0.603291                       # Number of inst fetches per cycle
system.cpu0.fetch.rateDist::samples         709270287                       # Number of instructions fetched each cycle (Total)
system.cpu0.fetch.rateDist::mean             0.654984                       # Number of instructions fetched each cycle (Total)
system.cpu0.fetch.rateDist::stdev            0.899888                       # Number of instructions fetched each cycle (Total)
system.cpu0.fetch.rateDist::underflows              0      0.00%      0.00% # Number of instructions fetched each cycle (Total)
system.cpu0.fetch.rateDist::0               376667679     53.11%     53.11% # Number of instructions fetched each cycle (Total)
system.cpu0.fetch.rateDist::1               252593201     35.61%     88.72% # Number of instructions fetched each cycle (Total)
system.cpu0.fetch.rateDist::2                40513471      5.71%     94.43% # Number of instructions fetched each cycle (Total)
system.cpu0.fetch.rateDist::3                32795057      4.62%     99.06% # Number of instructions fetched each cycle (Total)
system.cpu0.fetch.rateDist::4                 4235694      0.60%     99.65% # Number of instructions fetched each cycle (Total)
system.cpu0.fetch.rateDist::5                  821909      0.12%     99.77% # Number of instructions fetched each cycle (Total)
system.cpu0.fetch.rateDist::6                    1459      0.00%     99.77% # Number of instructions fetched each cycle (Total)
system.cpu0.fetch.rateDist::7                 1640337      0.23%    100.00% # Number of instructions fetched each cycle (Total)
system.cpu0.fetch.rateDist::8                    1480      0.00%    100.00% # Number of instructions fetched each cycle (Total)
system.cpu0.fetch.rateDist::overflows               0      0.00%    100.00% # Number of instructions fetched each cycle (Total)
system.cpu0.fetch.rateDist::min_value               0                       # Number of instructions fetched each cycle (Total)
system.cpu0.fetch.rateDist::max_value               8                       # Number of instructions fetched each cycle (Total)
system.cpu0.fetch.rateDist::total           709270287                       # Number of instructions fetched each cycle (Total)
system.cpu0.fp_regfile_reads                       16                       # number of floating regfile reads
system.cpu0.idleCycles                       60771435                       # Total number of cycles that the CPU has spent unscheduled due to idling
system.cpu0.iew.branchMispredicts             2831961                       # Number of branch mispredicts detected at execute
system.cpu0.iew.exec_branches               111301418                       # Number of branches executed
system.cpu0.iew.exec_nop                            0                       # number of nop insts executed
system.cpu0.iew.exec_rate                    0.583514                       # Inst execution rate
system.cpu0.iew.exec_refs                   199672320                       # number of memory reference insts executed
system.cpu0.iew.exec_stores                  54631668                       # Number of stores executed
system.cpu0.iew.exec_swp                            0                       # number of swp insts executed
system.cpu0.iew.iewBlockCycles                1291375                       # Number of cycles IEW is blocking
system.cpu0.iew.iewDispLoadInsts            145735653                       # Number of dispatched load instructions
system.cpu0.iew.iewDispNonSpecInsts              2848                       # Number of dispatched non-speculative instructions
system.cpu0.iew.iewDispSquashedInsts          1579263                       # Number of squashed instructions skipped by dispatch
system.cpu0.iew.iewDispStoreInsts            54811131                       # Number of dispatched store instructions
system.cpu0.iew.iewDispatchedInsts          451979276                       # Number of instructions dispatched to IQ
system.cpu0.iew.iewExecLoadInsts            145040652                       # Number of load instructions executed
system.cpu0.iew.iewExecSquashedInsts          1976305                       # Number of squashed instructions skipped in execute
system.cpu0.iew.iewExecutedInsts            449330337                       # Number of executed instructions
system.cpu0.iew.iewIQFullEvents                  4189                       # Number of times the IQ has become full, causing a stall
system.cpu0.iew.iewIdleCycles                       0                       # Number of cycles IEW is idle
system.cpu0.iew.iewLSQFullEvents              1731532                       # Number of times the LSQ has become full, causing a stall
system.cpu0.iew.iewSquashCycles               2836091                       # Number of cycles IEW is squashing
system.cpu0.iew.iewUnblockCycles              1741916                       # Number of cycles IEW is unblocking
system.cpu0.iew.lsq.thread0.blockedLoads            0                       # Number of blocked loads due to partial load-store forwarding
system.cpu0.iew.lsq.thread0.cacheBlocked         1702                       # Number of times an access to memory failed due to the cache being blocked
system.cpu0.iew.lsq.thread0.forwLoads         7634008                       # Number of loads that had data forwarded from stores
system.cpu0.iew.lsq.thread0.ignoredResponses          187                       # Number of memory responses ignored because the instruction is squashed
system.cpu0.iew.lsq.thread0.invAddrLoads            0                       # Number of loads ignored due to an invalid address
system.cpu0.iew.lsq.thread0.invAddrSwpfs            0                       # Number of software prefetches ignored due to an invalid address
system.cpu0.iew.lsq.thread0.memOrderViolation         4155                       # Number of memory ordering violations
system.cpu0.iew.lsq.thread0.rescheduledLoads      1790528                       # Number of loads that were rescheduled
system.cpu0.iew.lsq.thread0.squashedLoads      6750666                       # Number of loads squashed
system.cpu0.iew.lsq.thread0.squashedStores       892200                       # Number of stores squashed
system.cpu0.iew.memOrderViolationEvents          4155                       # Number of memory order violations
system.cpu0.iew.predictedNotTakenIncorrect        16116                       # Number of branches that were predicted not taken incorrectly
system.cpu0.iew.predictedTakenIncorrect       2815845                       # Number of branches that were predicted taken incorrectly
system.cpu0.iew.wb_consumers                182836003                       # num instructions consuming a value
system.cpu0.iew.wb_count                    446382255                       # cumulative count of insts written-back
system.cpu0.iew.wb_fanout                    0.900836                       # average fanout of values written-back
system.cpu0.iew.wb_producers                164705318                       # num instructions producing a value
system.cpu0.iew.wb_rate                      0.579686                       # insts written-back per cycle
system.cpu0.iew.wb_sent                     446387043                       # cumulative count of insts sent to commit
system.cpu0.int_regfile_reads               547336855                       # number of integer regfile reads
system.cpu0.int_regfile_writes              284584978                       # number of integer regfile writes
system.cpu0.ipc                              0.571151                       # IPC: Instructions Per Cycle
system.cpu0.ipc_total                        0.571151                       # IPC: Total IPC of All Threads
system.cpu0.iq.FU_type_0::No_OpClass             2750      0.00%      0.00% # Type of FU issued
system.cpu0.iq.FU_type_0::IntAlu            244996016     54.29%     54.29% # Type of FU issued
system.cpu0.iq.FU_type_0::IntMult             4268425      0.95%     55.23% # Type of FU issued
system.cpu0.iq.FU_type_0::IntDiv               819880      0.18%     55.41% # Type of FU issued
system.cpu0.iq.FU_type_0::FloatAdd                  0      0.00%     55.41% # Type of FU issued
system.cpu0.iq.FU_type_0::FloatCmp                  0      0.00%     55.41% # Type of FU issued
system.cpu0.iq.FU_type_0::FloatCvt                  0      0.00%     55.41% # Type of FU issued
system.cpu0.iq.FU_type_0::FloatMult                 0      0.00%     55.41% # Type of FU issued
system.cpu0.iq.FU_type_0::FloatMultAcc              0      0.00%     55.41% # Type of FU issued
system.cpu0.iq.FU_type_0::FloatDiv                  0      0.00%     55.41% # Type of FU issued
system.cpu0.iq.FU_type_0::FloatMisc                 0      0.00%     55.41% # Type of FU issued
system.cpu0.iq.FU_type_0::FloatSqrt                 0      0.00%     55.41% # Type of FU issued
system.cpu0.iq.FU_type_0::SimdAdd                   0      0.00%     55.41% # Type of FU issued
system.cpu0.iq.FU_type_0::SimdAddAcc                0      0.00%     55.41% # Type of FU issued
system.cpu0.iq.FU_type_0::SimdAlu                   0      0.00%     55.41% # Type of FU issued
system.cpu0.iq.FU_type_0::SimdCmp                   0      0.00%     55.41% # Type of FU issued
system.cpu0.iq.FU_type_0::SimdCvt                   0      0.00%     55.41% # Type of FU issued
system.cpu0.iq.FU_type_0::SimdMisc                  0      0.00%     55.41% # Type of FU issued
system.cpu0.iq.FU_type_0::SimdMult                  0      0.00%     55.41% # Type of FU issued
system.cpu0.iq.FU_type_0::SimdMultAcc               0      0.00%     55.41% # Type of FU issued
system.cpu0.iq.FU_type_0::SimdShift                 0      0.00%     55.41% # Type of FU issued
system.cpu0.iq.FU_type_0::SimdShiftAcc              0      0.00%     55.41% # Type of FU issued
system.cpu0.iq.FU_type_0::SimdDiv                   0      0.00%     55.41% # Type of FU issued
system.cpu0.iq.FU_type_0::SimdSqrt                  0      0.00%     55.41% # Type of FU issued
system.cpu0.iq.FU_type_0::SimdFloatAdd              0      0.00%     55.41% # Type of FU issued
system.cpu0.iq.FU_type_0::SimdFloatAlu              0      0.00%     55.41% # Type of FU issued
system.cpu0.iq.FU_type_0::SimdFloatCmp              0      0.00%     55.41% # Type of FU issued
system.cpu0.iq.FU_type_0::SimdFloatCvt              0      0.00%     55.41% # Type of FU issued
system.cpu0.iq.FU_type_0::SimdFloatDiv              0      0.00%     55.41% # Type of FU issued
system.cpu0.iq.FU_type_0::SimdFloatMisc             0      0.00%     55.41% # Type of FU issued
system.cpu0.iq.FU_type_0::SimdFloatMult             0      0.00%     55.41% # Type of FU issued
system.cpu0.iq.FU_type_0::SimdFloatMultAcc            0      0.00%     55.41% # Type of FU issued
system.cpu0.iq.FU_type_0::SimdFloatSqrt             0      0.00%     55.41% # Type of FU issued
system.cpu0.iq.FU_type_0::SimdReduceAdd             0      0.00%     55.41% # Type of FU issued
system.cpu0.iq.FU_type_0::SimdReduceAlu             0      0.00%     55.41% # Type of FU issued
system.cpu0.iq.FU_type_0::SimdReduceCmp             0      0.00%     55.41% # Type of FU issued
system.cpu0.iq.FU_type_0::SimdFloatReduceAdd            0      0.00%     55.41% # Type of FU issued
system.cpu0.iq.FU_type_0::SimdFloatReduceCmp            0      0.00%     55.41% # Type of FU issued
system.cpu0.iq.FU_type_0::SimdAes                   0      0.00%     55.41% # Type of FU issued
system.cpu0.iq.FU_type_0::SimdAesMix                0      0.00%     55.41% # Type of FU issued
system.cpu0.iq.FU_type_0::SimdSha1Hash              0      0.00%     55.41% # Type of FU issued
system.cpu0.iq.FU_type_0::SimdSha1Hash2             0      0.00%     55.41% # Type of FU issued
system.cpu0.iq.FU_type_0::SimdSha256Hash            0      0.00%     55.41% # Type of FU issued
system.cpu0.iq.FU_type_0::SimdSha256Hash2            0      0.00%     55.41% # Type of FU issued
system.cpu0.iq.FU_type_0::SimdShaSigma2             0      0.00%     55.41% # Type of FU issued
system.cpu0.iq.FU_type_0::SimdShaSigma3             0      0.00%     55.41% # Type of FU issued
system.cpu0.iq.FU_type_0::SimdPredAlu               0      0.00%     55.41% # Type of FU issued
system.cpu0.iq.FU_type_0::MemRead           146464050     32.45%     87.87% # Type of FU issued
system.cpu0.iq.FU_type_0::MemWrite           54755506     12.13%    100.00% # Type of FU issued
system.cpu0.iq.FU_type_0::FloatMemRead              0      0.00%    100.00% # Type of FU issued
system.cpu0.iq.FU_type_0::FloatMemWrite            16      0.00%    100.00% # Type of FU issued
system.cpu0.iq.FU_type_0::IprAccess                 0      0.00%    100.00% # Type of FU issued
system.cpu0.iq.FU_type_0::InstPrefetch              0      0.00%    100.00% # Type of FU issued
system.cpu0.iq.FU_type_0::total             451306643                       # Type of FU issued
system.cpu0.iq.fp_alu_accesses                     18                       # Number of floating point alu accesses
system.cpu0.iq.fp_inst_queue_reads                 34                       # Number of floating instruction queue reads
system.cpu0.iq.fp_inst_queue_wakeup_accesses           16                       # Number of floating instruction queue wakeup accesses
system.cpu0.iq.fp_inst_queue_writes                16                       # Number of floating instruction queue writes
system.cpu0.iq.fu_busy_cnt                     193224                       # FU busy when requested
system.cpu0.iq.fu_busy_rate                  0.000428                       # FU busy rate (busy events/executed inst)
system.cpu0.iq.fu_full::No_OpClass                  0      0.00%      0.00% # attempts to use FU when none available
system.cpu0.iq.fu_full::IntAlu                  14757      7.64%      7.64% # attempts to use FU when none available
system.cpu0.iq.fu_full::IntMult                     0      0.00%      7.64% # attempts to use FU when none available
system.cpu0.iq.fu_full::IntDiv                      0      0.00%      7.64% # attempts to use FU when none available
system.cpu0.iq.fu_full::FloatAdd                    0      0.00%      7.64% # attempts to use FU when none available
system.cpu0.iq.fu_full::FloatCmp                    0      0.00%      7.64% # attempts to use FU when none available
system.cpu0.iq.fu_full::FloatCvt                    0      0.00%      7.64% # attempts to use FU when none available
system.cpu0.iq.fu_full::FloatMult                   0      0.00%      7.64% # attempts to use FU when none available
system.cpu0.iq.fu_full::FloatMultAcc                0      0.00%      7.64% # attempts to use FU when none available
system.cpu0.iq.fu_full::FloatDiv                    0      0.00%      7.64% # attempts to use FU when none available
system.cpu0.iq.fu_full::FloatMisc                   0      0.00%      7.64% # attempts to use FU when none available
system.cpu0.iq.fu_full::FloatSqrt                   0      0.00%      7.64% # attempts to use FU when none available
system.cpu0.iq.fu_full::SimdAdd                     0      0.00%      7.64% # attempts to use FU when none available
system.cpu0.iq.fu_full::SimdAddAcc                  0      0.00%      7.64% # attempts to use FU when none available
system.cpu0.iq.fu_full::SimdAlu                     0      0.00%      7.64% # attempts to use FU when none available
system.cpu0.iq.fu_full::SimdCmp                     0      0.00%      7.64% # attempts to use FU when none available
system.cpu0.iq.fu_full::SimdCvt                     0      0.00%      7.64% # attempts to use FU when none available
system.cpu0.iq.fu_full::SimdMisc                    0      0.00%      7.64% # attempts to use FU when none available
system.cpu0.iq.fu_full::SimdMult                    0      0.00%      7.64% # attempts to use FU when none available
system.cpu0.iq.fu_full::SimdMultAcc                 0      0.00%      7.64% # attempts to use FU when none available
system.cpu0.iq.fu_full::SimdShift                   0      0.00%      7.64% # attempts to use FU when none available
system.cpu0.iq.fu_full::SimdShiftAcc                0      0.00%      7.64% # attempts to use FU when none available
system.cpu0.iq.fu_full::SimdDiv                     0      0.00%      7.64% # attempts to use FU when none available
system.cpu0.iq.fu_full::SimdSqrt                    0      0.00%      7.64% # attempts to use FU when none available
system.cpu0.iq.fu_full::SimdFloatAdd                0      0.00%      7.64% # attempts to use FU when none available
system.cpu0.iq.fu_full::SimdFloatAlu                0      0.00%      7.64% # attempts to use FU when none available
system.cpu0.iq.fu_full::SimdFloatCmp                0      0.00%      7.64% # attempts to use FU when none available
system.cpu0.iq.fu_full::SimdFloatCvt                0      0.00%      7.64% # attempts to use FU when none available
system.cpu0.iq.fu_full::SimdFloatDiv                0      0.00%      7.64% # attempts to use FU when none available
system.cpu0.iq.fu_full::SimdFloatMisc               0      0.00%      7.64% # attempts to use FU when none available
system.cpu0.iq.fu_full::SimdFloatMult               0      0.00%      7.64% # attempts to use FU when none available
system.cpu0.iq.fu_full::SimdFloatMultAcc            0      0.00%      7.64% # attempts to use FU when none available
system.cpu0.iq.fu_full::SimdFloatSqrt               0      0.00%      7.64% # attempts to use FU when none available
system.cpu0.iq.fu_full::SimdReduceAdd               0      0.00%      7.64% # attempts to use FU when none available
system.cpu0.iq.fu_full::SimdReduceAlu               0      0.00%      7.64% # attempts to use FU when none available
system.cpu0.iq.fu_full::SimdReduceCmp               0      0.00%      7.64% # attempts to use FU when none available
system.cpu0.iq.fu_full::SimdFloatReduceAdd            0      0.00%      7.64% # attempts to use FU when none available
system.cpu0.iq.fu_full::SimdFloatReduceCmp            0      0.00%      7.64% # attempts to use FU when none available
system.cpu0.iq.fu_full::SimdAes                     0      0.00%      7.64% # attempts to use FU when none available
system.cpu0.iq.fu_full::SimdAesMix                  0      0.00%      7.64% # attempts to use FU when none available
system.cpu0.iq.fu_full::SimdSha1Hash                0      0.00%      7.64% # attempts to use FU when none available
system.cpu0.iq.fu_full::SimdSha1Hash2               0      0.00%      7.64% # attempts to use FU when none available
system.cpu0.iq.fu_full::SimdSha256Hash              0      0.00%      7.64% # attempts to use FU when none available
system.cpu0.iq.fu_full::SimdSha256Hash2             0      0.00%      7.64% # attempts to use FU when none available
system.cpu0.iq.fu_full::SimdShaSigma2               0      0.00%      7.64% # attempts to use FU when none available
system.cpu0.iq.fu_full::SimdShaSigma3               0      0.00%      7.64% # attempts to use FU when none available
system.cpu0.iq.fu_full::SimdPredAlu                 0      0.00%      7.64% # attempts to use FU when none available
system.cpu0.iq.fu_full::MemRead                137249     71.03%     78.67% # attempts to use FU when none available
system.cpu0.iq.fu_full::MemWrite                41216     21.33%    100.00% # attempts to use FU when none available
system.cpu0.iq.fu_full::FloatMemRead                0      0.00%    100.00% # attempts to use FU when none available
system.cpu0.iq.fu_full::FloatMemWrite               2      0.00%    100.00% # attempts to use FU when none available
system.cpu0.iq.fu_full::IprAccess                   0      0.00%    100.00% # attempts to use FU when none available
system.cpu0.iq.fu_full::InstPrefetch                0      0.00%    100.00% # attempts to use FU when none available
system.cpu0.iq.int_alu_accesses             451497099                       # Number of integer alu accesses
system.cpu0.iq.int_inst_queue_reads        1612077012                       # Number of integer instruction queue reads
system.cpu0.iq.int_inst_queue_wakeup_accesses    446382239                       # Number of integer instruction queue wakeup accesses
system.cpu0.iq.int_inst_queue_writes        464151195                       # Number of integer instruction queue writes
system.cpu0.iq.iqInstsAdded                 451974496                       # Number of instructions added to the IQ (excludes non-spec)
system.cpu0.iq.iqInstsIssued                451306643                       # Number of instructions issued
system.cpu0.iq.iqNonSpecInstsAdded               4780                       # Number of non-speculative instructions added to the IQ
system.cpu0.iq.iqSquashedInstsExamined       12167785                       # Number of squashed instructions iterated over during squash; mainly for profiling
system.cpu0.iq.iqSquashedInstsIssued              250                       # Number of squashed instructions issued
system.cpu0.iq.iqSquashedNonSpecRemoved           138                       # Number of squashed non-spec instructions that were removed
system.cpu0.iq.iqSquashedOperandsExamined      6019805                       # Number of squashed operands that are examined and possibly removed from graph
system.cpu0.iq.issued_per_cycle::samples    709270287                       # Number of insts issued each cycle
system.cpu0.iq.issued_per_cycle::mean        0.636297                       # Number of insts issued each cycle
system.cpu0.iq.issued_per_cycle::stdev       0.797857                       # Number of insts issued each cycle
system.cpu0.iq.issued_per_cycle::underflows            0      0.00%      0.00% # Number of insts issued each cycle
system.cpu0.iq.issued_per_cycle::0          373661081     52.68%     52.68% # Number of insts issued each cycle
system.cpu0.iq.issued_per_cycle::1          241767313     34.09%     86.77% # Number of insts issued each cycle
system.cpu0.iq.issued_per_cycle::2           76254641     10.75%     97.52% # Number of insts issued each cycle
system.cpu0.iq.issued_per_cycle::3           14498105      2.04%     99.56% # Number of insts issued each cycle
system.cpu0.iq.issued_per_cycle::4            2407072      0.34%     99.90% # Number of insts issued each cycle
system.cpu0.iq.issued_per_cycle::5             343013      0.05%     99.95% # Number of insts issued each cycle
system.cpu0.iq.issued_per_cycle::6             207218      0.03%     99.98% # Number of insts issued each cycle
system.cpu0.iq.issued_per_cycle::7             105680      0.01%    100.00% # Number of insts issued each cycle
system.cpu0.iq.issued_per_cycle::8              26164      0.00%    100.00% # Number of insts issued each cycle
system.cpu0.iq.issued_per_cycle::overflows            0      0.00%    100.00% # Number of insts issued each cycle
system.cpu0.iq.issued_per_cycle::min_value            0                       # Number of insts issued each cycle
system.cpu0.iq.issued_per_cycle::max_value            8                       # Number of insts issued each cycle
system.cpu0.iq.issued_per_cycle::total      709270287                       # Number of insts issued each cycle
system.cpu0.iq.rate                          0.586081                       # Inst issue rate
system.cpu0.iq.vec_alu_accesses                     0                       # Number of vector alu accesses
system.cpu0.iq.vec_inst_queue_reads                 0                       # Number of vector instruction queue reads
system.cpu0.iq.vec_inst_queue_wakeup_accesses            0                       # Number of vector instruction queue wakeup accesses
system.cpu0.iq.vec_inst_queue_writes                0                       # Number of vector instruction queue writes
system.cpu0.itb.accesses                            0                       # DTB accesses
system.cpu0.itb.hits                                0                       # DTB hits
system.cpu0.itb.misses                              0                       # DTB misses
system.cpu0.itb.read_accesses                       0                       # DTB read accesses
system.cpu0.itb.read_hits                           0                       # DTB read hits
system.cpu0.itb.read_misses                         0                       # DTB read misses
system.cpu0.itb.write_accesses                      0                       # DTB write accesses
system.cpu0.itb.write_hits                          0                       # DTB write hits
system.cpu0.itb.write_misses                        0                       # DTB write misses
system.cpu0.memDep0.conflictingLoads          2709888                       # Number of conflicting loads.
system.cpu0.memDep0.conflictingStores          297027                       # Number of conflicting stores.
system.cpu0.memDep0.insertedLoads           145735653                       # Number of loads inserted to the mem dependence unit.
system.cpu0.memDep0.insertedStores           54811131                       # Number of stores inserted to the mem dependence unit.
system.cpu0.misc_regfile_reads                    795                       # number of misc regfile reads
system.cpu0.numCycles                       770041722                       # number of cpu cycles simulated
system.cpu0.numWorkItemsCompleted                   0                       # number of work items this cpu completed
system.cpu0.numWorkItemsStarted                     0                       # number of work items this cpu started
system.cpu0.quiesceCycles                        3245                       # Total number of cycles that CPU has spent quiesced or waiting for an interrupt
system.cpu0.rename.BlockCycles                3056236                       # Number of cycles rename is blocking
system.cpu0.rename.CommittedMaps            280239561                       # Number of HB maps that are committed
system.cpu0.rename.IQFullEvents                 29413                       # Number of times rename has blocked due to IQ full
system.cpu0.rename.IdleCycles               368513210                       # Number of cycles rename is idle
system.cpu0.rename.LQFullEvents               5352093                       # Number of times rename has blocked due to LQ full
system.cpu0.rename.ROBFullEvents                   15                       # Number of times rename has blocked due to ROB full
system.cpu0.rename.RenameLookups            554272455                       # Number of register rename lookups that rename has made
system.cpu0.rename.RenamedInsts             455962655                       # Number of instructions processed by rename
system.cpu0.rename.RenamedOperands          293006688                       # Number of destination operands rename has renamed
system.cpu0.rename.RunCycles                324607582                       # Number of cycles rename is running
system.cpu0.rename.SQFullEvents               4774471                       # Number of times rename has blocked due to SQ full
system.cpu0.rename.SquashCycles               2836091                       # Number of cycles rename is squashing
system.cpu0.rename.UnblockCycles             10186954                       # Number of cycles rename is unblocking
system.cpu0.rename.UndoneMaps                12767124                       # Number of HB maps that are undone due to squashing
system.cpu0.rename.fp_rename_lookups               16                       # Number of floating rename lookups
system.cpu0.rename.int_rename_lookups       554272439                       # Number of integer rename lookups
system.cpu0.rename.serializeStallCycles         70214                       # count of cycles rename stalled for serializing inst
system.cpu0.rename.serializingInsts              2517                       # count of serializing insts renamed
system.cpu0.rename.skidInsts                   732564                       # count of insts added to the skid buffer
system.cpu0.rename.tempSerializingInsts          2497                       # count of temporary serializing insts renamed
system.cpu0.rob.rob_reads                  1145511869                       # The number of ROB reads
system.cpu0.rob.rob_writes                  907428908                       # The number of ROB writes
system.cpu0.timesIdled                       12084826                       # Number of times that the entire CPU went into an idle state and unscheduled itself
system.cpu0.workload.numSyscalls                  795                       # Number of system calls
system.cpu1.branchPred.BTBCorrect                   0                       # Number of correct BTB predictions (this stat may not work properly.
system.cpu1.branchPred.BTBHitPct            98.462302                       # BTB Hit Percentage
system.cpu1.branchPred.BTBHits                 132931                       # Number of BTB hits
system.cpu1.branchPred.BTBLookups              135007                       # Number of BTB lookups
system.cpu1.branchPred.RASInCorrect                 0                       # Number of incorrect RAS predictions.
system.cpu1.branchPred.condIncorrect              544                       # Number of conditional branches incorrect
system.cpu1.branchPred.condPredicted           133782                       # Number of conditional branches predicted
system.cpu1.branchPred.indirectHits               614                       # Number of indirect target hits.
system.cpu1.branchPred.indirectLookups            878                       # Number of indirect predictor lookups.
system.cpu1.branchPred.indirectMisses             264                       # Number of indirect misses.
system.cpu1.branchPred.lookups                 136000                       # Number of BP lookups
system.cpu1.branchPred.usedRAS                      0                       # Number of times the RAS was used to get a target.
system.cpu1.branchPredindirectMispredicted          164                       # Number of mispredicted indirect branches.
system.cpu1.commit.amos                           156                       # Number of atomic instructions committed
system.cpu1.commit.branchMispredicts              428                       # The number of times a branch was mispredicted
system.cpu1.commit.branches                    134274                       # Number of branches committed
system.cpu1.commit.bw_lim_events                66729                       # number cycles where commit BW limit reached
system.cpu1.commit.commitNonSpecStalls            781                       # The number of times commit has been forced to stall to communicate backwards
system.cpu1.commit.commitSquashedInsts           1956                       # The number of squashed insts skipped by commit
system.cpu1.commit.committedInsts              930606                       # Number of instructions committed
system.cpu1.commit.committedOps                930847                       # Number of ops (including micro ops) committed
system.cpu1.commit.committed_per_cycle::samples      6701192                       # Number of insts commited each cycle
system.cpu1.commit.committed_per_cycle::mean     0.138908                       # Number of insts commited each cycle
system.cpu1.commit.committed_per_cycle::stdev     0.952659                       # Number of insts commited each cycle
system.cpu1.commit.committed_per_cycle::underflows            0      0.00%      0.00% # Number of insts commited each cycle
system.cpu1.commit.committed_per_cycle::0      6513453     97.20%     97.20% # Number of insts commited each cycle
system.cpu1.commit.committed_per_cycle::1        41954      0.63%     97.82% # Number of insts commited each cycle
system.cpu1.commit.committed_per_cycle::2        16259      0.24%     98.07% # Number of insts commited each cycle
system.cpu1.commit.committed_per_cycle::3        16369      0.24%     98.31% # Number of insts commited each cycle
system.cpu1.commit.committed_per_cycle::4        10341      0.15%     98.47% # Number of insts commited each cycle
system.cpu1.commit.committed_per_cycle::5         9659      0.14%     98.61% # Number of insts commited each cycle
system.cpu1.commit.committed_per_cycle::6         1219      0.02%     98.63% # Number of insts commited each cycle
system.cpu1.commit.committed_per_cycle::7        25209      0.38%     99.00% # Number of insts commited each cycle
system.cpu1.commit.committed_per_cycle::8        66729      1.00%    100.00% # Number of insts commited each cycle
system.cpu1.commit.committed_per_cycle::overflows            0      0.00%    100.00% # Number of insts commited each cycle
system.cpu1.commit.committed_per_cycle::min_value            0                       # Number of insts commited each cycle
system.cpu1.commit.committed_per_cycle::max_value            8                       # Number of insts commited each cycle
system.cpu1.commit.committed_per_cycle::total      6701192                       # Number of insts commited each cycle
system.cpu1.commit.fp_insts                        12                       # Number of committed floating point instructions.
system.cpu1.commit.function_calls                1074                       # Number of function calls committed.
system.cpu1.commit.int_insts                   930203                       # Number of committed integer instructions.
system.cpu1.commit.loads                       264528                       # Number of loads committed
system.cpu1.commit.membars                        340                       # Number of memory barriers committed
system.cpu1.commit.op_class_0::No_OpClass          340      0.04%      0.04% # Class of committed instruction
system.cpu1.commit.op_class_0::IntAlu          401861     43.17%     43.21% # Class of committed instruction
system.cpu1.commit.op_class_0::IntMult             19      0.00%     43.21% # Class of committed instruction
system.cpu1.commit.op_class_0::IntDiv              38      0.00%     43.21% # Class of committed instruction
system.cpu1.commit.op_class_0::FloatAdd             0      0.00%     43.21% # Class of committed instruction
system.cpu1.commit.op_class_0::FloatCmp             0      0.00%     43.21% # Class of committed instruction
system.cpu1.commit.op_class_0::FloatCvt             0      0.00%     43.21% # Class of committed instruction
system.cpu1.commit.op_class_0::FloatMult            0      0.00%     43.21% # Class of committed instruction
system.cpu1.commit.op_class_0::FloatMultAcc            0      0.00%     43.21% # Class of committed instruction
system.cpu1.commit.op_class_0::FloatDiv             0      0.00%     43.21% # Class of committed instruction
system.cpu1.commit.op_class_0::FloatMisc            0      0.00%     43.21% # Class of committed instruction
system.cpu1.commit.op_class_0::FloatSqrt            0      0.00%     43.21% # Class of committed instruction
system.cpu1.commit.op_class_0::SimdAdd              0      0.00%     43.21% # Class of committed instruction
system.cpu1.commit.op_class_0::SimdAddAcc            0      0.00%     43.21% # Class of committed instruction
system.cpu1.commit.op_class_0::SimdAlu              0      0.00%     43.21% # Class of committed instruction
system.cpu1.commit.op_class_0::SimdCmp              0      0.00%     43.21% # Class of committed instruction
system.cpu1.commit.op_class_0::SimdCvt              0      0.00%     43.21% # Class of committed instruction
system.cpu1.commit.op_class_0::SimdMisc             0      0.00%     43.21% # Class of committed instruction
system.cpu1.commit.op_class_0::SimdMult             0      0.00%     43.21% # Class of committed instruction
system.cpu1.commit.op_class_0::SimdMultAcc            0      0.00%     43.21% # Class of committed instruction
system.cpu1.commit.op_class_0::SimdShift            0      0.00%     43.21% # Class of committed instruction
system.cpu1.commit.op_class_0::SimdShiftAcc            0      0.00%     43.21% # Class of committed instruction
system.cpu1.commit.op_class_0::SimdDiv              0      0.00%     43.21% # Class of committed instruction
system.cpu1.commit.op_class_0::SimdSqrt             0      0.00%     43.21% # Class of committed instruction
system.cpu1.commit.op_class_0::SimdFloatAdd            0      0.00%     43.21% # Class of committed instruction
system.cpu1.commit.op_class_0::SimdFloatAlu            0      0.00%     43.21% # Class of committed instruction
system.cpu1.commit.op_class_0::SimdFloatCmp            0      0.00%     43.21% # Class of committed instruction
system.cpu1.commit.op_class_0::SimdFloatCvt            0      0.00%     43.21% # Class of committed instruction
system.cpu1.commit.op_class_0::SimdFloatDiv            0      0.00%     43.21% # Class of committed instruction
system.cpu1.commit.op_class_0::SimdFloatMisc            0      0.00%     43.21% # Class of committed instruction
system.cpu1.commit.op_class_0::SimdFloatMult            0      0.00%     43.21% # Class of committed instruction
system.cpu1.commit.op_class_0::SimdFloatMultAcc            0      0.00%     43.21% # Class of committed instruction
system.cpu1.commit.op_class_0::SimdFloatSqrt            0      0.00%     43.21% # Class of committed instruction
system.cpu1.commit.op_class_0::SimdReduceAdd            0      0.00%     43.21% # Class of committed instruction
system.cpu1.commit.op_class_0::SimdReduceAlu            0      0.00%     43.21% # Class of committed instruction
system.cpu1.commit.op_class_0::SimdReduceCmp            0      0.00%     43.21% # Class of committed instruction
system.cpu1.commit.op_class_0::SimdFloatReduceAdd            0      0.00%     43.21% # Class of committed instruction
system.cpu1.commit.op_class_0::SimdFloatReduceCmp            0      0.00%     43.21% # Class of committed instruction
system.cpu1.commit.op_class_0::SimdAes              0      0.00%     43.21% # Class of committed instruction
system.cpu1.commit.op_class_0::SimdAesMix            0      0.00%     43.21% # Class of committed instruction
system.cpu1.commit.op_class_0::SimdSha1Hash            0      0.00%     43.21% # Class of committed instruction
system.cpu1.commit.op_class_0::SimdSha1Hash2            0      0.00%     43.21% # Class of committed instruction
system.cpu1.commit.op_class_0::SimdSha256Hash            0      0.00%     43.21% # Class of committed instruction
system.cpu1.commit.op_class_0::SimdSha256Hash2            0      0.00%     43.21% # Class of committed instruction
system.cpu1.commit.op_class_0::SimdShaSigma2            0      0.00%     43.21% # Class of committed instruction
system.cpu1.commit.op_class_0::SimdShaSigma3            0      0.00%     43.21% # Class of committed instruction
system.cpu1.commit.op_class_0::SimdPredAlu            0      0.00%     43.21% # Class of committed instruction
system.cpu1.commit.op_class_0::MemRead         264684     28.43%     71.65% # Class of committed instruction
system.cpu1.commit.op_class_0::MemWrite        263893     28.35%    100.00% # Class of committed instruction
system.cpu1.commit.op_class_0::FloatMemRead            0      0.00%    100.00% # Class of committed instruction
system.cpu1.commit.op_class_0::FloatMemWrite           12      0.00%    100.00% # Class of committed instruction
system.cpu1.commit.op_class_0::IprAccess            0      0.00%    100.00% # Class of committed instruction
system.cpu1.commit.op_class_0::InstPrefetch            0      0.00%    100.00% # Class of committed instruction
system.cpu1.commit.op_class_0::total           930847                       # Class of committed instruction
system.cpu1.commit.refs                        528589                       # Number of memory references committed
system.cpu1.commit.swp_count                        0                       # Number of s/w prefetches committed
system.cpu1.commit.vec_insts                        0                       # Number of committed Vector instructions.
system.cpu1.committedInsts                     930606                       # Number of Instructions Simulated
system.cpu1.committedOps                       930847                       # Number of Ops (including micro ops) Simulated
system.cpu1.cpi                              7.261963                       # CPI: Cycles Per Instruction
system.cpu1.cpi_total                        7.261963                       # CPI: Total CPI of All Threads
system.cpu1.decode.BlockedCycles              6201935                       # Number of cycles decode is blocked
system.cpu1.decode.BranchMispred                  127                       # Number of times decode detected a branch misprediction
system.cpu1.decode.BranchResolved              132684                       # Number of times decode resolved a branch
system.cpu1.decode.DecodedInsts                934772                       # Number of instructions handled by decode
system.cpu1.decode.IdleCycles                  200732                       # Number of cycles decode is idle
system.cpu1.decode.RunCycles                   259568                       # Number of cycles decode is running
system.cpu1.decode.SquashCycles                   537                       # Number of cycles decode is squashing
system.cpu1.decode.SquashedInsts                  188                       # Number of squashed instructions handled by decode
system.cpu1.decode.UnblockCycles                39070                       # Number of cycles decode is unblocking
system.cpu1.dtb.accesses                            0                       # DTB accesses
system.cpu1.dtb.hits                                0                       # DTB hits
system.cpu1.dtb.misses                              0                       # DTB misses
system.cpu1.dtb.read_accesses                       0                       # DTB read accesses
system.cpu1.dtb.read_hits                           0                       # DTB read hits
system.cpu1.dtb.read_misses                         0                       # DTB read misses
system.cpu1.dtb.write_accesses                      0                       # DTB write accesses
system.cpu1.dtb.write_hits                          0                       # DTB write hits
system.cpu1.dtb.write_misses                        0                       # DTB write misses
system.cpu1.fetch.Branches                     136000                       # Number of branches that fetch encountered
system.cpu1.fetch.CacheLines                   265491                       # Number of cache lines fetched
system.cpu1.fetch.Cycles                      6412708                       # Number of cycles fetch has run and was not squashing or blocked
system.cpu1.fetch.IcacheSquashes                  294                       # Number of outstanding Icache misses that were squashed
system.cpu1.fetch.Insts                        937552                       # Number of instructions fetch has processed
system.cpu1.fetch.MiscStallCycles                   1                       # Number of cycles fetch has spent waiting on interrupts, or bad addresses, or out of MSHRs
system.cpu1.fetch.SquashCycles                   1306                       # Number of cycles fetch has spent squashing
system.cpu1.fetch.branchRate                 0.020124                       # Number of branch fetches per cycle
system.cpu1.fetch.icacheStallCycles            288480                       # Number of cycles fetch is stalled on an Icache miss
system.cpu1.fetch.predictedBranches            133545                       # Number of branches that fetch has predicted taken
system.cpu1.fetch.rate                       0.138732                       # Number of inst fetches per cycle
system.cpu1.fetch.rateDist::samples           6701842                       # Number of instructions fetched each cycle (Total)
system.cpu1.fetch.rateDist::mean             0.139964                       # Number of instructions fetched each cycle (Total)
system.cpu1.fetch.rateDist::stdev            0.588132                       # Number of instructions fetched each cycle (Total)
system.cpu1.fetch.rateDist::underflows              0      0.00%      0.00% # Number of instructions fetched each cycle (Total)
system.cpu1.fetch.rateDist::0                 6150064     91.77%     91.77% # Number of instructions fetched each cycle (Total)
system.cpu1.fetch.rateDist::1                  414577      6.19%     97.95% # Number of instructions fetched each cycle (Total)
system.cpu1.fetch.rateDist::2                    7587      0.11%     98.07% # Number of instructions fetched each cycle (Total)
system.cpu1.fetch.rateDist::3                   10797      0.16%     98.23% # Number of instructions fetched each cycle (Total)
system.cpu1.fetch.rateDist::4                  118438      1.77%     99.99% # Number of instructions fetched each cycle (Total)
system.cpu1.fetch.rateDist::5                     277      0.00%    100.00% # Number of instructions fetched each cycle (Total)
system.cpu1.fetch.rateDist::6                      31      0.00%    100.00% # Number of instructions fetched each cycle (Total)
system.cpu1.fetch.rateDist::7                      16      0.00%    100.00% # Number of instructions fetched each cycle (Total)
system.cpu1.fetch.rateDist::8                      55      0.00%    100.00% # Number of instructions fetched each cycle (Total)
system.cpu1.fetch.rateDist::overflows               0      0.00%    100.00% # Number of instructions fetched each cycle (Total)
system.cpu1.fetch.rateDist::min_value               0                       # Number of instructions fetched each cycle (Total)
system.cpu1.fetch.rateDist::max_value               8                       # Number of instructions fetched each cycle (Total)
system.cpu1.fetch.rateDist::total             6701842                       # Number of instructions fetched each cycle (Total)
system.cpu1.fp_regfile_reads                       12                       # number of floating regfile reads
system.cpu1.idleCycles                          56184                       # Total number of cycles that the CPU has spent unscheduled due to idling
system.cpu1.iew.branchMispredicts                 433                       # Number of branch mispredicts detected at execute
system.cpu1.iew.exec_branches                  134480                       # Number of branches executed
system.cpu1.iew.exec_nop                            0                       # number of nop insts executed
system.cpu1.iew.exec_rate                    0.137921                       # Inst execution rate
system.cpu1.iew.exec_refs                      529026                       # number of memory reference insts executed
system.cpu1.iew.exec_stores                    264180                       # Number of stores executed
system.cpu1.iew.exec_swp                            0                       # number of swp insts executed
system.cpu1.iew.iewBlockCycles                 748479                       # Number of cycles IEW is blocking
system.cpu1.iew.iewDispLoadInsts               265055                       # Number of dispatched load instructions
system.cpu1.iew.iewDispNonSpecInsts               513                       # Number of dispatched non-speculative instructions
system.cpu1.iew.iewDispSquashedInsts              295                       # Number of squashed instructions skipped by dispatch
system.cpu1.iew.iewDispStoreInsts              264338                       # Number of dispatched store instructions
system.cpu1.iew.iewDispatchedInsts             932804                       # Number of instructions dispatched to IQ
system.cpu1.iew.iewExecLoadInsts               264846                       # Number of load instructions executed
system.cpu1.iew.iewExecSquashedInsts              278                       # Number of squashed instructions skipped in execute
system.cpu1.iew.iewExecutedInsts               932076                       # Number of executed instructions
system.cpu1.iew.iewIQFullEvents                  3606                       # Number of times the IQ has become full, causing a stall
system.cpu1.iew.iewIdleCycles                       0                       # Number of cycles IEW is idle
system.cpu1.iew.iewLSQFullEvents              1016756                       # Number of times the LSQ has become full, causing a stall
system.cpu1.iew.iewSquashCycles                   537                       # Number of cycles IEW is squashing
system.cpu1.iew.iewUnblockCycles              1024774                       # Number of cycles IEW is unblocking
system.cpu1.iew.lsq.thread0.blockedLoads            0                       # Number of blocked loads due to partial load-store forwarding
system.cpu1.iew.lsq.thread0.cacheBlocked           11                       # Number of times an access to memory failed due to the cache being blocked
system.cpu1.iew.lsq.thread0.forwLoads              62                       # Number of loads that had data forwarded from stores
system.cpu1.iew.lsq.thread0.ignoredResponses            6                       # Number of memory responses ignored because the instruction is squashed
system.cpu1.iew.lsq.thread0.invAddrLoads            0                       # Number of loads ignored due to an invalid address
system.cpu1.iew.lsq.thread0.invAddrSwpfs            0                       # Number of software prefetches ignored due to an invalid address
system.cpu1.iew.lsq.thread0.memOrderViolation            6                       # Number of memory ordering violations
system.cpu1.iew.lsq.thread0.rescheduledLoads            0                       # Number of loads that were rescheduled
system.cpu1.iew.lsq.thread0.squashedLoads          527                       # Number of loads squashed
system.cpu1.iew.lsq.thread0.squashedStores          277                       # Number of stores squashed
system.cpu1.iew.memOrderViolationEvents             6                       # Number of memory order violations
system.cpu1.iew.predictedNotTakenIncorrect          298                       # Number of branches that were predicted not taken incorrectly
system.cpu1.iew.predictedTakenIncorrect           135                       # Number of branches that were predicted taken incorrectly
system.cpu1.iew.wb_consumers                   646491                       # num instructions consuming a value
system.cpu1.iew.wb_count                       931808                       # cumulative count of insts written-back
system.cpu1.iew.wb_fanout                    0.596949                       # average fanout of values written-back
system.cpu1.iew.wb_producers                   385922                       # num instructions producing a value
system.cpu1.iew.wb_rate                      0.137882                       # insts written-back per cycle
system.cpu1.iew.wb_sent                        931914                       # cumulative count of insts sent to commit
system.cpu1.int_regfile_reads                 1327437                       # number of integer regfile reads
system.cpu1.int_regfile_writes                 534022                       # number of integer regfile writes
system.cpu1.ipc                              0.137704                       # IPC: Instructions Per Cycle
system.cpu1.ipc_total                        0.137704                       # IPC: Total IPC of All Threads
system.cpu1.iq.FU_type_0::No_OpClass              443      0.05%      0.05% # Type of FU issued
system.cpu1.iq.FU_type_0::IntAlu               402709     43.19%     43.24% # Type of FU issued
system.cpu1.iq.FU_type_0::IntMult                  22      0.00%     43.24% # Type of FU issued
system.cpu1.iq.FU_type_0::IntDiv                   38      0.00%     43.25% # Type of FU issued
system.cpu1.iq.FU_type_0::FloatAdd                  0      0.00%     43.25% # Type of FU issued
system.cpu1.iq.FU_type_0::FloatCmp                  0      0.00%     43.25% # Type of FU issued
system.cpu1.iq.FU_type_0::FloatCvt                  0      0.00%     43.25% # Type of FU issued
system.cpu1.iq.FU_type_0::FloatMult                 0      0.00%     43.25% # Type of FU issued
system.cpu1.iq.FU_type_0::FloatMultAcc              0      0.00%     43.25% # Type of FU issued
system.cpu1.iq.FU_type_0::FloatDiv                  0      0.00%     43.25% # Type of FU issued
system.cpu1.iq.FU_type_0::FloatMisc                 0      0.00%     43.25% # Type of FU issued
system.cpu1.iq.FU_type_0::FloatSqrt                 0      0.00%     43.25% # Type of FU issued
system.cpu1.iq.FU_type_0::SimdAdd                   0      0.00%     43.25% # Type of FU issued
system.cpu1.iq.FU_type_0::SimdAddAcc                0      0.00%     43.25% # Type of FU issued
system.cpu1.iq.FU_type_0::SimdAlu                   0      0.00%     43.25% # Type of FU issued
system.cpu1.iq.FU_type_0::SimdCmp                   0      0.00%     43.25% # Type of FU issued
system.cpu1.iq.FU_type_0::SimdCvt                   0      0.00%     43.25% # Type of FU issued
system.cpu1.iq.FU_type_0::SimdMisc                  0      0.00%     43.25% # Type of FU issued
system.cpu1.iq.FU_type_0::SimdMult                  0      0.00%     43.25% # Type of FU issued
system.cpu1.iq.FU_type_0::SimdMultAcc               0      0.00%     43.25% # Type of FU issued
system.cpu1.iq.FU_type_0::SimdShift                 0      0.00%     43.25% # Type of FU issued
system.cpu1.iq.FU_type_0::SimdShiftAcc              0      0.00%     43.25% # Type of FU issued
system.cpu1.iq.FU_type_0::SimdDiv                   0      0.00%     43.25% # Type of FU issued
system.cpu1.iq.FU_type_0::SimdSqrt                  0      0.00%     43.25% # Type of FU issued
system.cpu1.iq.FU_type_0::SimdFloatAdd              0      0.00%     43.25% # Type of FU issued
system.cpu1.iq.FU_type_0::SimdFloatAlu              0      0.00%     43.25% # Type of FU issued
system.cpu1.iq.FU_type_0::SimdFloatCmp              0      0.00%     43.25% # Type of FU issued
system.cpu1.iq.FU_type_0::SimdFloatCvt              0      0.00%     43.25% # Type of FU issued
system.cpu1.iq.FU_type_0::SimdFloatDiv              0      0.00%     43.25% # Type of FU issued
system.cpu1.iq.FU_type_0::SimdFloatMisc             0      0.00%     43.25% # Type of FU issued
system.cpu1.iq.FU_type_0::SimdFloatMult             0      0.00%     43.25% # Type of FU issued
system.cpu1.iq.FU_type_0::SimdFloatMultAcc            0      0.00%     43.25% # Type of FU issued
system.cpu1.iq.FU_type_0::SimdFloatSqrt             0      0.00%     43.25% # Type of FU issued
system.cpu1.iq.FU_type_0::SimdReduceAdd             0      0.00%     43.25% # Type of FU issued
system.cpu1.iq.FU_type_0::SimdReduceAlu             0      0.00%     43.25% # Type of FU issued
system.cpu1.iq.FU_type_0::SimdReduceCmp             0      0.00%     43.25% # Type of FU issued
system.cpu1.iq.FU_type_0::SimdFloatReduceAdd            0      0.00%     43.25% # Type of FU issued
system.cpu1.iq.FU_type_0::SimdFloatReduceCmp            0      0.00%     43.25% # Type of FU issued
system.cpu1.iq.FU_type_0::SimdAes                   0      0.00%     43.25% # Type of FU issued
system.cpu1.iq.FU_type_0::SimdAesMix                0      0.00%     43.25% # Type of FU issued
system.cpu1.iq.FU_type_0::SimdSha1Hash              0      0.00%     43.25% # Type of FU issued
system.cpu1.iq.FU_type_0::SimdSha1Hash2             0      0.00%     43.25% # Type of FU issued
system.cpu1.iq.FU_type_0::SimdSha256Hash            0      0.00%     43.25% # Type of FU issued
system.cpu1.iq.FU_type_0::SimdSha256Hash2            0      0.00%     43.25% # Type of FU issued
system.cpu1.iq.FU_type_0::SimdShaSigma2             0      0.00%     43.25% # Type of FU issued
system.cpu1.iq.FU_type_0::SimdShaSigma3             0      0.00%     43.25% # Type of FU issued
system.cpu1.iq.FU_type_0::SimdPredAlu               0      0.00%     43.25% # Type of FU issued
system.cpu1.iq.FU_type_0::MemRead              265088     28.43%     71.68% # Type of FU issued
system.cpu1.iq.FU_type_0::MemWrite             264042     28.32%    100.00% # Type of FU issued
system.cpu1.iq.FU_type_0::FloatMemRead              0      0.00%    100.00% # Type of FU issued
system.cpu1.iq.FU_type_0::FloatMemWrite            12      0.00%    100.00% # Type of FU issued
system.cpu1.iq.FU_type_0::IprAccess                 0      0.00%    100.00% # Type of FU issued
system.cpu1.iq.FU_type_0::InstPrefetch              0      0.00%    100.00% # Type of FU issued
system.cpu1.iq.FU_type_0::total                932354                       # Type of FU issued
system.cpu1.iq.fp_alu_accesses                     14                       # Number of floating point alu accesses
system.cpu1.iq.fp_inst_queue_reads                 26                       # Number of floating instruction queue reads
system.cpu1.iq.fp_inst_queue_wakeup_accesses           12                       # Number of floating instruction queue wakeup accesses
system.cpu1.iq.fp_inst_queue_writes                12                       # Number of floating instruction queue writes
system.cpu1.iq.fu_busy_cnt                      47260                       # FU busy when requested
system.cpu1.iq.fu_busy_rate                  0.050689                       # FU busy rate (busy events/executed inst)
system.cpu1.iq.fu_full::No_OpClass                  0      0.00%      0.00% # attempts to use FU when none available
system.cpu1.iq.fu_full::IntAlu                     36      0.08%      0.08% # attempts to use FU when none available
system.cpu1.iq.fu_full::IntMult                     0      0.00%      0.08% # attempts to use FU when none available
system.cpu1.iq.fu_full::IntDiv                      0      0.00%      0.08% # attempts to use FU when none available
system.cpu1.iq.fu_full::FloatAdd                    0      0.00%      0.08% # attempts to use FU when none available
system.cpu1.iq.fu_full::FloatCmp                    0      0.00%      0.08% # attempts to use FU when none available
system.cpu1.iq.fu_full::FloatCvt                    0      0.00%      0.08% # attempts to use FU when none available
system.cpu1.iq.fu_full::FloatMult                   0      0.00%      0.08% # attempts to use FU when none available
system.cpu1.iq.fu_full::FloatMultAcc                0      0.00%      0.08% # attempts to use FU when none available
system.cpu1.iq.fu_full::FloatDiv                    0      0.00%      0.08% # attempts to use FU when none available
system.cpu1.iq.fu_full::FloatMisc                   0      0.00%      0.08% # attempts to use FU when none available
system.cpu1.iq.fu_full::FloatSqrt                   0      0.00%      0.08% # attempts to use FU when none available
system.cpu1.iq.fu_full::SimdAdd                     0      0.00%      0.08% # attempts to use FU when none available
system.cpu1.iq.fu_full::SimdAddAcc                  0      0.00%      0.08% # attempts to use FU when none available
system.cpu1.iq.fu_full::SimdAlu                     0      0.00%      0.08% # attempts to use FU when none available
system.cpu1.iq.fu_full::SimdCmp                     0      0.00%      0.08% # attempts to use FU when none available
system.cpu1.iq.fu_full::SimdCvt                     0      0.00%      0.08% # attempts to use FU when none available
system.cpu1.iq.fu_full::SimdMisc                    0      0.00%      0.08% # attempts to use FU when none available
system.cpu1.iq.fu_full::SimdMult                    0      0.00%      0.08% # attempts to use FU when none available
system.cpu1.iq.fu_full::SimdMultAcc                 0      0.00%      0.08% # attempts to use FU when none available
system.cpu1.iq.fu_full::SimdShift                   0      0.00%      0.08% # attempts to use FU when none available
system.cpu1.iq.fu_full::SimdShiftAcc                0      0.00%      0.08% # attempts to use FU when none available
system.cpu1.iq.fu_full::SimdDiv                     0      0.00%      0.08% # attempts to use FU when none available
system.cpu1.iq.fu_full::SimdSqrt                    0      0.00%      0.08% # attempts to use FU when none available
system.cpu1.iq.fu_full::SimdFloatAdd                0      0.00%      0.08% # attempts to use FU when none available
system.cpu1.iq.fu_full::SimdFloatAlu                0      0.00%      0.08% # attempts to use FU when none available
system.cpu1.iq.fu_full::SimdFloatCmp                0      0.00%      0.08% # attempts to use FU when none available
system.cpu1.iq.fu_full::SimdFloatCvt                0      0.00%      0.08% # attempts to use FU when none available
system.cpu1.iq.fu_full::SimdFloatDiv                0      0.00%      0.08% # attempts to use FU when none available
system.cpu1.iq.fu_full::SimdFloatMisc               0      0.00%      0.08% # attempts to use FU when none available
system.cpu1.iq.fu_full::SimdFloatMult               0      0.00%      0.08% # attempts to use FU when none available
system.cpu1.iq.fu_full::SimdFloatMultAcc            0      0.00%      0.08% # attempts to use FU when none available
system.cpu1.iq.fu_full::SimdFloatSqrt               0      0.00%      0.08% # attempts to use FU when none available
system.cpu1.iq.fu_full::SimdReduceAdd               0      0.00%      0.08% # attempts to use FU when none available
system.cpu1.iq.fu_full::SimdReduceAlu               0      0.00%      0.08% # attempts to use FU when none available
system.cpu1.iq.fu_full::SimdReduceCmp               0      0.00%      0.08% # attempts to use FU when none available
system.cpu1.iq.fu_full::SimdFloatReduceAdd            0      0.00%      0.08% # attempts to use FU when none available
system.cpu1.iq.fu_full::SimdFloatReduceCmp            0      0.00%      0.08% # attempts to use FU when none available
system.cpu1.iq.fu_full::SimdAes                     0      0.00%      0.08% # attempts to use FU when none available
system.cpu1.iq.fu_full::SimdAesMix                  0      0.00%      0.08% # attempts to use FU when none available
system.cpu1.iq.fu_full::SimdSha1Hash                0      0.00%      0.08% # attempts to use FU when none available
system.cpu1.iq.fu_full::SimdSha1Hash2               0      0.00%      0.08% # attempts to use FU when none available
system.cpu1.iq.fu_full::SimdSha256Hash              0      0.00%      0.08% # attempts to use FU when none available
system.cpu1.iq.fu_full::SimdSha256Hash2             0      0.00%      0.08% # attempts to use FU when none available
system.cpu1.iq.fu_full::SimdShaSigma2               0      0.00%      0.08% # attempts to use FU when none available
system.cpu1.iq.fu_full::SimdShaSigma3               0      0.00%      0.08% # attempts to use FU when none available
system.cpu1.iq.fu_full::SimdPredAlu                 0      0.00%      0.08% # attempts to use FU when none available
system.cpu1.iq.fu_full::MemRead                  9099     19.25%     19.33% # attempts to use FU when none available
system.cpu1.iq.fu_full::MemWrite                38123     80.67%    100.00% # attempts to use FU when none available
system.cpu1.iq.fu_full::FloatMemRead                0      0.00%    100.00% # attempts to use FU when none available
system.cpu1.iq.fu_full::FloatMemWrite               2      0.00%    100.00% # attempts to use FU when none available
[...]
system.cpu1.dcache.WriteReq_mshr_miss_latency::.cpu1.data   4501525000                       # number of WriteReq MSHR miss cycles
system.cpu1.dcache.WriteReq_mshr_miss_latency::total   4501525000                       # number of WriteReq MSHR miss cycles
system.cpu1.dcache.WriteReq_mshr_miss_rate::.cpu1.data     0.062573                       # mshr miss rate for WriteReq accesses
system.cpu1.dcache.WriteReq_mshr_miss_rate::total     0.062573                       # mshr miss rate for WriteReq accesses
system.cpu1.dcache.WriteReq_avg_mshr_miss_latency::.cpu1.data 272786.631923                       # average WriteReq mshr miss latency
system.cpu1.dcache.WriteReq_avg_mshr_miss_latency::total 272786.631923                       # average WriteReq mshr miss latency
system.cpu1.dcache.LoadLockedReq_hits::.cpu1.data          148                       # number of LoadLockedReq hits
system.cpu1.dcache.LoadLockedReq_hits::total          148                       # number of LoadLockedReq hits
system.cpu1.dcache.LoadLockedReq_misses::.cpu1.data          103                       # number of LoadLockedReq misses
system.cpu1.dcache.LoadLockedReq_misses::total          103                       # number of LoadLockedReq misses
system.cpu1.dcache.LoadLockedReq_miss_latency::.cpu1.data      2057000                       # number of LoadLockedReq miss cycles
system.cpu1.dcache.LoadLockedReq_miss_latency::total      2057000                       # number of LoadLockedReq miss cycles
system.cpu1.dcache.LoadLockedReq_accesses::.cpu1.data          251                       # number of LoadLockedReq accesses(hits+misses)
system.cpu1.dcache.LoadLockedReq_accesses::total          251                       # number of LoadLockedReq accesses(hits+misses)
system.cpu1.dcache.LoadLockedReq_miss_rate::.cpu1.data     0.410359                       # miss rate for LoadLockedReq accesses
system.cpu1.dcache.LoadLockedReq_miss_rate::total     0.410359                       # miss rate for LoadLockedReq accesses
system.cpu1.dcache.LoadLockedReq_avg_miss_latency::.cpu1.data 19970.873786                       # average LoadLockedReq miss latency
system.cpu1.dcache.LoadLockedReq_avg_miss_latency::total 19970.873786                       # average LoadLockedReq miss latency
system.cpu1.dcache.LoadLockedReq_mshr_hits::.cpu1.data           64                       # number of LoadLockedReq MSHR hits
system.cpu1.dcache.LoadLockedReq_mshr_hits::total           64                       # number of LoadLockedReq MSHR hits
system.cpu1.dcache.LoadLockedReq_mshr_misses::.cpu1.data           39                       # number of LoadLockedReq MSHR misses
system.cpu1.dcache.LoadLockedReq_mshr_misses::total           39                       # number of LoadLockedReq MSHR misses
system.cpu1.dcache.LoadLockedReq_mshr_miss_latency::.cpu1.data       814000                       # number of LoadLockedReq MSHR miss cycles
system.cpu1.dcache.LoadLockedReq_mshr_miss_latency::total       814000                       # number of LoadLockedReq MSHR miss cycles
system.cpu1.dcache.LoadLockedReq_mshr_miss_rate::.cpu1.data     0.155378                       # mshr miss rate for LoadLockedReq accesses
system.cpu1.dcache.LoadLockedReq_mshr_miss_rate::total     0.155378                       # mshr miss rate for LoadLockedReq accesses
system.cpu1.dcache.LoadLockedReq_avg_mshr_miss_latency::.cpu1.data 20871.794872                       # average LoadLockedReq mshr miss latency
system.cpu1.dcache.LoadLockedReq_avg_mshr_miss_latency::total 20871.794872                       # average LoadLockedReq mshr miss latency
system.cpu1.dcache.StoreCondReq_hits::.cpu1.data           90                       # number of StoreCondReq hits
system.cpu1.dcache.StoreCondReq_hits::total           90                       # number of StoreCondReq hits
system.cpu1.dcache.StoreCondReq_misses::.cpu1.data           79                       # number of StoreCondReq misses
system.cpu1.dcache.StoreCondReq_misses::total           79                       # number of StoreCondReq misses
system.cpu1.dcache.StoreCondReq_miss_latency::.cpu1.data       640500                       # number of StoreCondReq miss cycles
system.cpu1.dcache.StoreCondReq_miss_latency::total       640500                       # number of StoreCondReq miss cycles
system.cpu1.dcache.StoreCondReq_accesses::.cpu1.data          169                       # number of StoreCondReq accesses(hits+misses)
system.cpu1.dcache.StoreCondReq_accesses::total          169                       # number of StoreCondReq accesses(hits+misses)
system.cpu1.dcache.StoreCondReq_miss_rate::.cpu1.data     0.467456                       # miss rate for StoreCondReq accesses
system.cpu1.dcache.StoreCondReq_miss_rate::total     0.467456                       # miss rate for StoreCondReq accesses
system.cpu1.dcache.StoreCondReq_avg_miss_latency::.cpu1.data  8107.594937                       # average StoreCondReq miss latency
system.cpu1.dcache.StoreCondReq_avg_miss_latency::total  8107.594937                       # average StoreCondReq miss latency
system.cpu1.dcache.StoreCondReq_mshr_misses::.cpu1.data           76                       # number of StoreCondReq MSHR misses
system.cpu1.dcache.StoreCondReq_mshr_misses::total           76                       # number of StoreCondReq MSHR misses
system.cpu1.dcache.StoreCondReq_mshr_miss_latency::.cpu1.data       575500                       # number of StoreCondReq MSHR miss cycles
system.cpu1.dcache.StoreCondReq_mshr_miss_latency::total       575500                       # number of StoreCondReq MSHR miss cycles
system.cpu1.dcache.StoreCondReq_mshr_miss_rate::.cpu1.data     0.449704                       # mshr miss rate for StoreCondReq accesses
system.cpu1.dcache.StoreCondReq_mshr_miss_rate::total     0.449704                       # mshr miss rate for StoreCondReq accesses
system.cpu1.dcache.StoreCondReq_avg_mshr_miss_latency::.cpu1.data  7572.368421                       # average StoreCondReq mshr miss latency
system.cpu1.dcache.StoreCondReq_avg_mshr_miss_latency::total  7572.368421                       # average StoreCondReq mshr miss latency
system.cpu1.dcache.StoreCondFailReq_miss_latency::.cpu1.data       264000                       # number of StoreCondFailReq miss cycles
system.cpu1.dcache.StoreCondFailReq_miss_latency::total       264000                       # number of StoreCondFailReq miss cycles
system.cpu1.dcache.StoreCondFailReq_avg_miss_latency::.cpu1.data          inf                       # average StoreCondFailReq miss latency
system.cpu1.dcache.StoreCondFailReq_avg_miss_latency::total          inf                       # average StoreCondFailReq miss latency
system.cpu1.dcache.StoreCondFailReq_mshr_miss_latency::.cpu1.data       253000                       # number of StoreCondFailReq MSHR miss cycles
system.cpu1.dcache.StoreCondFailReq_mshr_miss_latency::total       253000                       # number of StoreCondFailReq MSHR miss cycles
system.cpu1.dcache.StoreCondFailReq_avg_mshr_miss_latency::.cpu1.data          inf                       # average StoreCondFailReq mshr miss latency
system.cpu1.dcache.StoreCondFailReq_avg_mshr_miss_latency::total          inf                       # average StoreCondFailReq mshr miss latency
system.cpu1.dcache.SwapReq_hits::.cpu1.data           43                       # number of SwapReq hits
system.cpu1.dcache.SwapReq_hits::total             43                       # number of SwapReq hits
system.cpu1.dcache.SwapReq_misses::.cpu1.data          113                       # number of SwapReq misses
system.cpu1.dcache.SwapReq_misses::total          113                       # number of SwapReq misses
system.cpu1.dcache.SwapReq_miss_latency::.cpu1.data       770000                       # number of SwapReq miss cycles
system.cpu1.dcache.SwapReq_miss_latency::total       770000                       # number of SwapReq miss cycles
system.cpu1.dcache.SwapReq_accesses::.cpu1.data          156                       # number of SwapReq accesses(hits+misses)
system.cpu1.dcache.SwapReq_accesses::total          156                       # number of SwapReq accesses(hits+misses)
system.cpu1.dcache.SwapReq_miss_rate::.cpu1.data     0.724359                       # miss rate for SwapReq accesses
system.cpu1.dcache.SwapReq_miss_rate::total     0.724359                       # miss rate for SwapReq accesses
system.cpu1.dcache.SwapReq_avg_miss_latency::.cpu1.data  6814.159292                       # average SwapReq miss latency
system.cpu1.dcache.SwapReq_avg_miss_latency::total  6814.159292                       # average SwapReq miss latency
system.cpu1.dcache.SwapReq_mshr_misses::.cpu1.data          113                       # number of SwapReq MSHR misses
system.cpu1.dcache.SwapReq_mshr_misses::total          113                       # number of SwapReq MSHR misses
system.cpu1.dcache.SwapReq_mshr_miss_latency::.cpu1.data       657000                       # number of SwapReq MSHR miss cycles
system.cpu1.dcache.SwapReq_mshr_miss_latency::total       657000                       # number of SwapReq MSHR miss cycles
system.cpu1.dcache.SwapReq_mshr_miss_rate::.cpu1.data     0.724359                       # mshr miss rate for SwapReq accesses
system.cpu1.dcache.SwapReq_mshr_miss_rate::total     0.724359                       # mshr miss rate for SwapReq accesses
system.cpu1.dcache.SwapReq_avg_mshr_miss_latency::.cpu1.data  5814.159292                       # average SwapReq mshr miss latency
system.cpu1.dcache.SwapReq_avg_mshr_miss_latency::total  5814.159292                       # average SwapReq mshr miss latency
system.cpu1.dcache.tags.pwrStateResidencyTicks::UNDEFINED 385021118500                       # Cumulative time (in ticks) in various power states
system.cpu1.dcache.tags.tagsinuse           28.397358                       # Cycle average of tags in use
system.cpu1.dcache.tags.total_refs              92251                       # Total number of references to valid blocks.
system.cpu1.dcache.tags.sampled_refs            33370                       # Sample count of references to valid blocks.
system.cpu1.dcache.tags.avg_refs             2.764489                       # Average number of references to valid blocks.
system.cpu1.dcache.tags.warmup_cycle        347367500                       # Cycle when the warmup percentage was hit.
system.cpu1.dcache.tags.occ_blocks::.cpu1.data    28.397358                       # Average occupied blocks per requestor
system.cpu1.dcache.tags.occ_percent::.cpu1.data     0.887417                       # Average percentage of cache occupancy
system.cpu1.dcache.tags.occ_percent::total     0.887417                       # Average percentage of cache occupancy
system.cpu1.dcache.tags.occ_task_id_blocks::1024           28                       # Occupied blocks per task id
system.cpu1.dcache.tags.age_task_id_blocks_1024::4           28                       # Occupied blocks per task id
system.cpu1.dcache.tags.occ_task_id_percent::1024     0.875000                       # Percentage of cache occupancy per task id
system.cpu1.dcache.tags.tag_accesses          1091004                       # Number of tag accesses
system.cpu1.dcache.tags.data_accesses         1091004                       # Number of data accesses
system.cpu_clk_domain.clock                       500                       # Clock period in ticks
system.tol2bus.pwrStateResidencyTicks::UNDEFINED 385021118500                       # Cumulative time (in ticks) in various power states
system.tol2bus.trans_dist::ReadResp          23745032                       # Transaction distribution
system.tol2bus.trans_dist::ReadRespWithInvalidate            2                       # Transaction distribution
system.tol2bus.trans_dist::WritebackDirty      1870076                       # Transaction distribution
system.tol2bus.trans_dist::WritebackClean     23067031                       # Transaction distribution
system.tol2bus.trans_dist::CleanEvict          776210                       # Transaction distribution
system.tol2bus.trans_dist::UpgradeReq             533                       # Transaction distribution
system.tol2bus.trans_dist::SCUpgradeReq           277                       # Transaction distribution
system.tol2bus.trans_dist::UpgradeResp            810                       # Transaction distribution
system.tol2bus.trans_dist::SCUpgradeFailReq           50                       # Transaction distribution
system.tol2bus.trans_dist::UpgradeFailResp           50                       # Transaction distribution
system.tol2bus.trans_dist::ReadExReq          1056454                       # Transaction distribution
system.tol2bus.trans_dist::ReadExResp         1056453                       # Transaction distribution
system.tol2bus.trans_dist::ReadCleanReq      13510869                       # Transaction distribution
system.tol2bus.trans_dist::ReadSharedReq     10234165                       # Transaction distribution
system.tol2bus.trans_dist::InvalidateReq           16                       # Transaction distribution
system.tol2bus.trans_dist::InvalidateResp           16                       # Transaction distribution
system.tol2bus.pkt_count_system.cpu0.icache.mem_side::system.l2.cpu_side     40524724                       # Packet count per connected master and slave (bytes)
system.tol2bus.pkt_count_system.cpu0.dcache.mem_side::system.l2.cpu_side     33571176                       # Packet count per connected master and slave (bytes)
system.tol2bus.pkt_count_system.cpu1.icache.mem_side::system.l2.cpu_side         2566                       # Packet count per connected master and slave (bytes)
system.tol2bus.pkt_count_system.cpu1.dcache.mem_side::system.l2.cpu_side        99507                       # Packet count per connected master and slave (bytes)
system.tol2bus.pkt_count_system.cpu2.icache.mem_side::system.l2.cpu_side         2531                       # Packet count per connected master and slave (bytes)
system.tol2bus.pkt_count_system.cpu2.dcache.mem_side::system.l2.cpu_side        99549                       # Packet count per connected master and slave (bytes)
system.tol2bus.pkt_count_system.cpu3.icache.mem_side::system.l2.cpu_side         2659                       # Packet count per connected master and slave (bytes)
system.tol2bus.pkt_count_system.cpu3.dcache.mem_side::system.l2.cpu_side        99555                       # Packet count per connected master and slave (bytes)
system.tol2bus.pkt_count::total              74402267                       # Packet count per connected master and slave (bytes)
system.tol2bus.pkt_size_system.cpu0.icache.mem_side::system.l2.cpu_side   1729054208                       # Cumulative packet size per connected master and slave (bytes)
system.tol2bus.pkt_size_system.cpu0.dcache.mem_side::system.l2.cpu_side   1432344384                       # Cumulative packet size per connected master and slave (bytes)
system.tol2bus.pkt_size_system.cpu1.icache.mem_side::system.l2.cpu_side       108800                       # Cumulative packet size per connected master and slave (bytes)
system.tol2bus.pkt_size_system.cpu1.dcache.mem_side::system.l2.cpu_side      4218304                       # Cumulative packet size per connected master and slave (bytes)
system.tol2bus.pkt_size_system.cpu2.icache.mem_side::system.l2.cpu_side       107328                       # Cumulative packet size per connected master and slave (bytes)
system.tol2bus.pkt_size_system.cpu2.dcache.mem_side::system.l2.cpu_side      4218880                       # Cumulative packet size per connected master and slave (bytes)
system.tol2bus.pkt_size_system.cpu3.icache.mem_side::system.l2.cpu_side       112768                       # Cumulative packet size per connected master and slave (bytes)
system.tol2bus.pkt_size_system.cpu3.dcache.mem_side::system.l2.cpu_side      4216704                       # Cumulative packet size per connected master and slave (bytes)
system.tol2bus.pkt_size::total             3174381376                       # Cumulative packet size per connected master and slave (bytes)
system.tol2bus.snoops                          915777                       # Total snoops (count)
system.tol2bus.snoopTraffic                   8891840                       # Total snoop traffic (bytes)
system.tol2bus.snoop_fanout::samples         25715919                       # Request fanout histogram
system.tol2bus.snoop_fanout::mean            0.020517                       # Request fanout histogram
system.tol2bus.snoop_fanout::stdev           0.150654                       # Request fanout histogram
system.tol2bus.snoop_fanout::underflows             0      0.00%      0.00% # Request fanout histogram
system.tol2bus.snoop_fanout::0               25208618     98.03%     98.03% # Request fanout histogram
system.tol2bus.snoop_fanout::1                 497164      1.93%     99.96% # Request fanout histogram
system.tol2bus.snoop_fanout::2                   2889      0.01%     99.97% # Request fanout histogram
system.tol2bus.snoop_fanout::3                   4314      0.02%     99.99% # Request fanout histogram
system.tol2bus.snoop_fanout::4                   2934      0.01%    100.00% # Request fanout histogram
system.tol2bus.snoop_fanout::5                      0      0.00%    100.00% # Request fanout histogram
system.tol2bus.snoop_fanout::6                      0      0.00%    100.00% # Request fanout histogram
system.tol2bus.snoop_fanout::7                      0      0.00%    100.00% # Request fanout histogram
system.tol2bus.snoop_fanout::8                      0      0.00%    100.00% # Request fanout histogram
system.tol2bus.snoop_fanout::overflows              0      0.00%    100.00% # Request fanout histogram
system.tol2bus.snoop_fanout::min_value              0                       # Request fanout histogram
system.tol2bus.snoop_fanout::max_value              4                       # Request fanout histogram
system.tol2bus.snoop_fanout::total           25715919                       # Request fanout histogram
system.tol2bus.reqLayer0.occupancy        49600830988                       # Layer occupancy (ticks)
system.tol2bus.reqLayer0.utilization             12.9                       # Layer utilization (%)
system.tol2bus.respLayer5.occupancy          50192468                       # Layer occupancy (ticks)
system.tol2bus.respLayer5.utilization             0.0                       # Layer utilization (%)
system.tol2bus.respLayer4.occupancy           1349341                       # Layer occupancy (ticks)
system.tol2bus.respLayer4.utilization             0.0                       # Layer utilization (%)
system.tol2bus.respLayer7.occupancy          50243960                       # Layer occupancy (ticks)
system.tol2bus.respLayer7.utilization             0.0                       # Layer utilization (%)
system.tol2bus.respLayer6.occupancy           1407344                       # Layer occupancy (ticks)
system.tol2bus.respLayer6.utilization             0.0                       # Layer utilization (%)
system.tol2bus.respLayer1.occupancy       16788671876                       # Layer occupancy (ticks)
system.tol2bus.respLayer1.utilization             4.4                       # Layer utilization (%)
system.tol2bus.respLayer0.occupancy       20263175899                       # Layer occupancy (ticks)
system.tol2bus.respLayer0.utilization             5.3                       # Layer utilization (%)
system.tol2bus.respLayer3.occupancy          50158472                       # Layer occupancy (ticks)
system.tol2bus.respLayer3.utilization             0.0                       # Layer utilization (%)
system.tol2bus.respLayer2.occupancy           1345386                       # Layer occupancy (ticks)
system.tol2bus.respLayer2.utilization             0.0                       # Layer utilization (%)

---------- End Simulation Statistics   ----------
