
---------- Begin Simulation Statistics ----------
final_tick                               1504992160500                       # Number of ticks from beginning of simulation (restored from checkpoints and never reset)
host_inst_rate                                  58178                       # Simulator instruction rate (inst/s)
host_mem_usage                                 703168                       # Number of bytes of host memory used
host_op_rate                                    58348                       # Simulator op (including micro ops) rate (op/s)
host_seconds                                 24693.48                       # Real time elapsed on the host
host_tick_rate                               60946935                       # Simulator tick rate (ticks/s)
sim_freq                                 1000000000000                       # Frequency of simulated ticks
sim_insts                                  1436609599                       # Number of instructions simulated
sim_ops                                    1440813339                       # Number of ops (including micro ops) simulated
sim_seconds                                  1.504992                       # Number of seconds simulated
sim_ticks                                1504992160500                       # Number of ticks simulated
system.cpu0.branchPred.BTBCorrect                   0                       # Number of correct BTB predictions (this stat may not work properly.
system.cpu0.branchPred.BTBHitPct            86.947125                       # BTB Hit Percentage
system.cpu0.branchPred.BTBHits              183796145                       # Number of BTB hits
system.cpu0.branchPred.BTBLookups           211388411                       # Number of BTB lookups
system.cpu0.branchPred.RASInCorrect                 0                       # Number of incorrect RAS predictions.
system.cpu0.branchPred.condIncorrect         17825462                       # Number of conditional branches incorrect
system.cpu0.branchPred.condPredicted        274651366                       # Number of conditional branches predicted
system.cpu0.branchPred.indirectHits          20890254                       # Number of indirect target hits.
system.cpu0.branchPred.indirectLookups       22331147                       # Number of indirect predictor lookups.
system.cpu0.branchPred.indirectMisses         1440893                       # Number of indirect misses.
system.cpu0.branchPred.lookups              349404212                       # Number of BP lookups
system.cpu0.branchPred.usedRAS                      0                       # Number of times the RAS was used to get a target.
system.cpu0.branchPredindirectMispredicted      2188041                       # Number of mispredicted indirect branches.
system.cpu0.commit.amos                       2100249                       # Number of atomic instructions committed
system.cpu0.commit.branchMispredicts          9932069                       # The number of times a branch was mispredicted
system.cpu0.commit.branches                 329547448                       # Number of branches committed
system.cpu0.commit.bw_lim_events             33619706                       # number cycles where commit BW limit reached
system.cpu0.commit.commitNonSpecStalls        6309707                       # The number of times commit has been forced to stall to communicate backwards
system.cpu0.commit.commitSquashedInsts       52153063                       # The number of squashed insts skipped by commit
system.cpu0.commit.committedInsts          1316563916                       # Number of instructions committed
system.cpu0.commit.committedOps            1318667488                       # Number of ops (including micro ops) committed
system.cpu0.commit.committed_per_cycle::samples   2442875465                       # Number of insts commited each cycle
system.cpu0.commit.committed_per_cycle::mean     0.539801                       # Number of insts commited each cycle
system.cpu0.commit.committed_per_cycle::stdev     1.264676                       # Number of insts commited each cycle
system.cpu0.commit.committed_per_cycle::underflows            0      0.00%      0.00% # Number of insts commited each cycle
system.cpu0.commit.committed_per_cycle::0   1771775726     72.53%     72.53% # Number of insts commited each cycle
system.cpu0.commit.committed_per_cycle::1    414414117     16.96%     89.49% # Number of insts commited each cycle
system.cpu0.commit.committed_per_cycle::2     99396255      4.07%     93.56% # Number of insts commited each cycle
system.cpu0.commit.committed_per_cycle::3     85171469      3.49%     97.05% # Number of insts commited each cycle
system.cpu0.commit.committed_per_cycle::4     23690998      0.97%     98.02% # Number of insts commited each cycle
system.cpu0.commit.committed_per_cycle::5      5342770      0.22%     98.24% # Number of insts commited each cycle
system.cpu0.commit.committed_per_cycle::6      6740004      0.28%     98.51% # Number of insts commited each cycle
system.cpu0.commit.committed_per_cycle::7      2724420      0.11%     98.62% # Number of insts commited each cycle
system.cpu0.commit.committed_per_cycle::8     33619706      1.38%    100.00% # Number of insts commited each cycle
system.cpu0.commit.committed_per_cycle::overflows            0      0.00%    100.00% # Number of insts commited each cycle
system.cpu0.commit.committed_per_cycle::min_value            0                       # Number of insts commited each cycle
system.cpu0.commit.committed_per_cycle::max_value            8                       # Number of insts commited each cycle
system.cpu0.commit.committed_per_cycle::total   2442875465                       # Number of insts commited each cycle
system.cpu0.commit.fp_insts                        50                       # Number of committed floating point instructions.
system.cpu0.commit.function_calls            25143440                       # Number of function calls committed.
system.cpu0.commit.int_insts               1273935670                       # Number of committed integer instructions.
system.cpu0.commit.loads                    405171795                       # Number of loads committed
system.cpu0.commit.membars                    4203730                       # Number of memory barriers committed
system.cpu0.commit.op_class_0::No_OpClass      4203736      0.32%      0.32% # Class of committed instruction
system.cpu0.commit.op_class_0::IntAlu       742073032     56.27%     56.59% # Class of committed instruction
system.cpu0.commit.op_class_0::IntMult       11833021      0.90%     57.49% # Class of committed instruction
system.cpu0.commit.op_class_0::IntDiv         2099837      0.16%     57.65% # Class of committed instruction
system.cpu0.commit.op_class_0::FloatAdd             0      0.00%     57.65% # Class of committed instruction
system.cpu0.commit.op_class_0::FloatCmp             4      0.00%     57.65% # Class of committed instruction
system.cpu0.commit.op_class_0::FloatCvt            12      0.00%     57.65% # Class of committed instruction
system.cpu0.commit.op_class_0::FloatMult            0      0.00%     57.65% # Class of committed instruction
system.cpu0.commit.op_class_0::FloatMultAcc            0      0.00%     57.65% # Class of committed instruction
system.cpu0.commit.op_class_0::FloatDiv             2      0.00%     57.65% # Class of committed instruction
system.cpu0.commit.op_class_0::FloatMisc            4      0.00%     57.65% # Class of committed instruction
system.cpu0.commit.op_class_0::FloatSqrt            0      0.00%     57.65% # Class of committed instruction
system.cpu0.commit.op_class_0::SimdAdd              0      0.00%     57.65% # Class of committed instruction
system.cpu0.commit.op_class_0::SimdAddAcc            0      0.00%     57.65% # Class of committed instruction
system.cpu0.commit.op_class_0::SimdAlu              0      0.00%     57.65% # Class of committed instruction
system.cpu0.commit.op_class_0::SimdCmp              0      0.00%     57.65% # Class of committed instruction
system.cpu0.commit.op_class_0::SimdCvt              0      0.00%     57.65% # Class of committed instruction
system.cpu0.commit.op_class_0::SimdMisc             0      0.00%     57.65% # Class of committed instruction
system.cpu0.commit.op_class_0::SimdMult             0      0.00%     57.65% # Class of committed instruction
system.cpu0.commit.op_class_0::SimdMultAcc            0      0.00%     57.65% # Class of committed instruction
system.cpu0.commit.op_class_0::SimdShift            0      0.00%     57.65% # Class of committed instruction
system.cpu0.commit.op_class_0::SimdShiftAcc            0      0.00%     57.65% # Class of committed instruction
system.cpu0.commit.op_class_0::SimdDiv              0      0.00%     57.65% # Class of committed instruction
system.cpu0.commit.op_class_0::SimdSqrt             0      0.00%     57.65% # Class of committed instruction
system.cpu0.commit.op_class_0::SimdFloatAdd            0      0.00%     57.65% # Class of committed instruction
system.cpu0.commit.op_class_0::SimdFloatAlu            0      0.00%     57.65% # Class of committed instruction
system.cpu0.commit.op_class_0::SimdFloatCmp            0      0.00%     57.65% # Class of committed instruction
system.cpu0.commit.op_class_0::SimdFloatCvt            0      0.00%     57.65% # Class of committed instruction
system.cpu0.commit.op_class_0::SimdFloatDiv            0      0.00%     57.65% # Class of committed instruction
system.cpu0.commit.op_class_0::SimdFloatMisc            0      0.00%     57.65% # Class of committed instruction
system.cpu0.commit.op_class_0::SimdFloatMult            0      0.00%     57.65% # Class of committed instruction
system.cpu0.commit.op_class_0::SimdFloatMultAcc            0      0.00%     57.65% # Class of committed instruction
system.cpu0.commit.op_class_0::SimdFloatSqrt            0      0.00%     57.65% # Class of committed instruction
system.cpu0.commit.op_class_0::SimdReduceAdd            0      0.00%     57.65% # Class of committed instruction
system.cpu0.commit.op_class_0::SimdReduceAlu            0      0.00%     57.65% # Class of committed instruction
system.cpu0.commit.op_class_0::SimdReduceCmp            0      0.00%     57.65% # Class of committed instruction
system.cpu0.commit.op_class_0::SimdFloatReduceAdd            0      0.00%     57.65% # Class of committed instruction
system.cpu0.commit.op_class_0::SimdFloatReduceCmp            0      0.00%     57.65% # Class of committed instruction
system.cpu0.commit.op_class_0::SimdAes              0      0.00%     57.65% # Class of committed instruction
system.cpu0.commit.op_class_0::SimdAesMix            0      0.00%     57.65% # Class of committed instruction
system.cpu0.commit.op_class_0::SimdSha1Hash            0      0.00%     57.65% # Class of committed instruction
system.cpu0.commit.op_class_0::SimdSha1Hash2            0      0.00%     57.65% # Class of committed instruction
system.cpu0.commit.op_class_0::SimdSha256Hash            0      0.00%     57.65% # Class of committed instruction
system.cpu0.commit.op_class_0::SimdSha256Hash2            0      0.00%     57.65% # Class of committed instruction
system.cpu0.commit.op_class_0::SimdShaSigma2            0      0.00%     57.65% # Class of committed instruction
system.cpu0.commit.op_class_0::SimdShaSigma3            0      0.00%     57.65% # Class of committed instruction
system.cpu0.commit.op_class_0::SimdPredAlu            0      0.00%     57.65% # Class of committed instruction
system.cpu0.commit.op_class_0::MemRead      407272036     30.89%     88.53% # Class of committed instruction
system.cpu0.commit.op_class_0::MemWrite     151185776     11.47%    100.00% # Class of committed instruction
system.cpu0.commit.op_class_0::FloatMemRead            8      0.00%    100.00% # Class of committed instruction
system.cpu0.commit.op_class_0::FloatMemWrite           20      0.00%    100.00% # Class of committed instruction
system.cpu0.commit.op_class_0::IprAccess            0      0.00%    100.00% # Class of committed instruction
system.cpu0.commit.op_class_0::InstPrefetch            0      0.00%    100.00% # Class of committed instruction
system.cpu0.commit.op_class_0::total       1318667488                       # Class of committed instruction
system.cpu0.commit.refs                     558457840                       # Number of memory references committed
system.cpu0.commit.swp_count                        0                       # Number of s/w prefetches committed
system.cpu0.commit.vec_insts                        0                       # Number of committed Vector instructions.
system.cpu0.committedInsts                 1316563916                       # Number of Instructions Simulated
system.cpu0.committedOps                   1318667488                       # Number of Ops (including micro ops) Simulated
system.cpu0.cpi                              2.277559                       # CPI: Cycles Per Instruction
system.cpu0.cpi_total                        2.277559                       # CPI: Total CPI of All Threads
system.cpu0.decode.BlockedCycles            520078805                       # Number of cycles decode is blocked
system.cpu0.decode.BranchMispred              7947904                       # Number of times decode detected a branch misprediction
system.cpu0.decode.BranchResolved           178954563                       # Number of times decode resolved a branch
system.cpu0.decode.DecodedInsts            1401047167                       # Number of instructions handled by decode
system.cpu0.decode.IdleCycles               958061530                       # Number of cycles decode is idle
system.cpu0.decode.RunCycles                962337746                       # Number of cycles decode is running
system.cpu0.decode.SquashCycles               9941897                       # Number of cycles decode is squashing
system.cpu0.decode.SquashedInsts              9085802                       # Number of squashed instructions handled by decode
system.cpu0.decode.UnblockCycles              6247738                       # Number of cycles decode is unblocking
system.cpu0.dtb.accesses                            0                       # DTB accesses
system.cpu0.dtb.hits                                0                       # DTB hits
system.cpu0.dtb.misses                              0                       # DTB misses
system.cpu0.dtb.read_accesses                       0                       # DTB read accesses
system.cpu0.dtb.read_hits                           0                       # DTB read hits
system.cpu0.dtb.read_misses                         0                       # DTB read misses
system.cpu0.dtb.write_accesses                      0                       # DTB write accesses
system.cpu0.dtb.write_hits                          0                       # DTB write hits
system.cpu0.dtb.write_misses                        0                       # DTB write misses
system.cpu0.fetch.Branches                  349404212                       # Number of branches that fetch encountered
system.cpu0.fetch.CacheLines                237074037                       # Number of cache lines fetched
system.cpu0.fetch.Cycles                   1487808934                       # Number of cycles fetch has run and was not squashing or blocked
system.cpu0.fetch.IcacheSquashes              4908009                       # Number of outstanding Icache misses that were squashed
system.cpu0.fetch.IcacheWaitRetryStallCycles          121                       # Number of stall cycles due to full MSHR
system.cpu0.fetch.Insts                    1423722968                       # Number of instructions fetch has processed
system.cpu0.fetch.MiscStallCycles                  13                       # Number of cycles fetch has spent waiting on interrupts, or bad addresses, or out of MSHRs
system.cpu0.fetch.PendingTrapStallCycles            6                       # Number of stall cycles due to pending traps
system.cpu0.fetch.SquashCycles               35670582                       # Number of cycles fetch has spent squashing
system.cpu0.fetch.branchRate                 0.116524                       # Number of branch fetches per cycle
system.cpu0.fetch.icacheStallCycles         951023351                       # Number of cycles fetch is stalled on an Icache miss
system.cpu0.fetch.predictedBranches         204686399                       # Number of branches that fetch has predicted taken
system.cpu0.fetch.rate                       0.474804                       # Number of inst fetches per cycle
system.cpu0.fetch.rateDist::samples        2456667716                       # Number of instructions fetched each cycle (Total)
system.cpu0.fetch.rateDist::mean             0.580391                       # Number of instructions fetched each cycle (Total)
system.cpu0.fetch.rateDist::stdev            0.878500                       # Number of instructions fetched each cycle (Total)
system.cpu0.fetch.rateDist::underflows              0      0.00%      0.00% # Number of instructions fetched each cycle (Total)
system.cpu0.fetch.rateDist::0              1444522060     58.80%     58.80% # Number of instructions fetched each cycle (Total)
system.cpu0.fetch.rateDist::1               753176750     30.66%     89.46% # Number of instructions fetched each cycle (Total)
system.cpu0.fetch.rateDist::2               145860125      5.94%     95.40% # Number of instructions fetched each cycle (Total)
system.cpu0.fetch.rateDist::3                91232174      3.71%     99.11% # Number of instructions fetched each cycle (Total)
system.cpu0.fetch.rateDist::4                12805001      0.52%     99.63% # Number of instructions fetched each cycle (Total)
system.cpu0.fetch.rateDist::5                 4754711      0.19%     99.82% # Number of instructions fetched each cycle (Total)
system.cpu0.fetch.rateDist::6                   97224      0.00%     99.83% # Number of instructions fetched each cycle (Total)
system.cpu0.fetch.rateDist::7                 2100918      0.09%     99.91% # Number of instructions fetched each cycle (Total)
system.cpu0.fetch.rateDist::8                 2118753      0.09%    100.00% # Number of instructions fetched each cycle (Total)
system.cpu0.fetch.rateDist::overflows               0      0.00%    100.00% # Number of instructions fetched each cycle (Total)
system.cpu0.fetch.rateDist::min_value               0                       # Number of instructions fetched each cycle (Total)
system.cpu0.fetch.rateDist::max_value               8                       # Number of instructions fetched each cycle (Total)
system.cpu0.fetch.rateDist::total          2456667716                       # Number of instructions fetched each cycle (Total)
system.cpu0.fp_regfile_reads                       44                       # number of floating regfile reads
system.cpu0.fp_regfile_writes                      22                       # number of floating regfile writes
system.cpu0.idleCycles                      541884245                       # Total number of cycles that the CPU has spent unscheduled due to idling
system.cpu0.iew.branchMispredicts            10055327                       # Number of branch mispredicts detected at execute
system.cpu0.iew.exec_branches               333805006                       # Number of branches executed
system.cpu0.iew.exec_nop                            0                       # number of nop insts executed
system.cpu0.iew.exec_rate                    0.453344                       # Inst execution rate
system.cpu0.iew.exec_refs                   585369387                       # number of memory reference insts executed
system.cpu0.iew.exec_stores                 154447500                       # Number of stores executed
system.cpu0.iew.exec_swp                            0                       # number of swp insts executed
system.cpu0.iew.iewBlockCycles              402274952                       # Number of cycles IEW is blocking
system.cpu0.iew.iewDispLoadInsts            430371132                       # Number of dispatched load instructions
system.cpu0.iew.iewDispNonSpecInsts           2106500                       # Number of dispatched non-speculative instructions
system.cpu0.iew.iewDispSquashedInsts          8594424                       # Number of squashed instructions skipped by dispatch
system.cpu0.iew.iewDispStoreInsts           155102544                       # Number of dispatched store instructions
system.cpu0.iew.iewDispatchedInsts         1370740416                       # Number of instructions dispatched to IQ
system.cpu0.iew.iewExecLoadInsts            430921887                       # Number of load instructions executed
system.cpu0.iew.iewExecSquashedInsts          7243820                       # Number of squashed instructions skipped in execute
system.cpu0.iew.iewExecutedInsts           1359374115                       # Number of executed instructions
system.cpu0.iew.iewIQFullEvents               1837079                       # Number of times the IQ has become full, causing a stall
system.cpu0.iew.iewIdleCycles                       0                       # Number of cycles IEW is idle
system.cpu0.iew.iewLSQFullEvents             20053114                       # Number of times the LSQ has become full, causing a stall
system.cpu0.iew.iewSquashCycles               9941897                       # Number of cycles IEW is squashing
system.cpu0.iew.iewUnblockCycles             24503493                       # Number of cycles IEW is unblocking
system.cpu0.iew.lsq.thread0.blockedLoads            0                       # Number of blocked loads due to partial load-store forwarding
system.cpu0.iew.lsq.thread0.cacheBlocked       249114                       # Number of times an access to memory failed due to the cache being blocked
system.cpu0.iew.lsq.thread0.forwLoads        25147876                       # Number of loads that had data forwarded from stores
system.cpu0.iew.lsq.thread0.ignoredResponses        53274                       # Number of memory responses ignored because the instruction is squashed
system.cpu0.iew.lsq.thread0.invAddrLoads            0                       # Number of loads ignored due to an invalid address
system.cpu0.iew.lsq.thread0.invAddrSwpfs            0                       # Number of software prefetches ignored due to an invalid address
system.cpu0.iew.lsq.thread0.memOrderViolation         9725                       # Number of memory ordering violations
system.cpu0.iew.lsq.thread0.rescheduledLoads      4272619                       # Number of loads that were rescheduled
system.cpu0.iew.lsq.thread0.squashedLoads     25199337                       # Number of loads squashed
system.cpu0.iew.lsq.thread0.squashedStores      1816488                       # Number of stores squashed
system.cpu0.iew.memOrderViolationEvents          9725                       # Number of memory order violations
system.cpu0.iew.predictedNotTakenIncorrect       819951                       # Number of branches that were predicted not taken incorrectly
system.cpu0.iew.predictedTakenIncorrect       9235376                       # Number of branches that were predicted taken incorrectly
system.cpu0.iew.wb_consumers                618099540                       # num instructions consuming a value
system.cpu0.iew.wb_count                   1347009614                       # cumulative count of insts written-back
system.cpu0.iew.wb_fanout                    0.828954                       # average fanout of values written-back
system.cpu0.iew.wb_producers                512376195                       # num instructions producing a value
system.cpu0.iew.wb_rate                      0.449220                       # insts written-back per cycle
system.cpu0.iew.wb_sent                    1347164139                       # cumulative count of insts sent to commit
system.cpu0.int_regfile_reads              1671449266                       # number of integer regfile reads
system.cpu0.int_regfile_writes              868749097                       # number of integer regfile writes
system.cpu0.ipc                              0.439067                       # IPC: Instructions Per Cycle
system.cpu0.ipc_total                        0.439067                       # IPC: Total IPC of All Threads
system.cpu0.iq.FU_type_0::No_OpClass          4205644      0.31%      0.31% # Type of FU issued
system.cpu0.iq.FU_type_0::IntAlu            760658841     55.66%     55.97% # Type of FU issued
system.cpu0.iq.FU_type_0::IntMult            11848532      0.87%     56.83% # Type of FU issued
system.cpu0.iq.FU_type_0::IntDiv              2100403      0.15%     56.99% # Type of FU issued
system.cpu0.iq.FU_type_0::FloatAdd                  0      0.00%     56.99% # Type of FU issued
system.cpu0.iq.FU_type_0::FloatCmp                  4      0.00%     56.99% # Type of FU issued
system.cpu0.iq.FU_type_0::FloatCvt                 12      0.00%     56.99% # Type of FU issued
system.cpu0.iq.FU_type_0::FloatMult                 0      0.00%     56.99% # Type of FU issued
system.cpu0.iq.FU_type_0::FloatMultAcc              0      0.00%     56.99% # Type of FU issued
system.cpu0.iq.FU_type_0::FloatDiv                  2      0.00%     56.99% # Type of FU issued
system.cpu0.iq.FU_type_0::FloatMisc                 4      0.00%     56.99% # Type of FU issued
system.cpu0.iq.FU_type_0::FloatSqrt                 0      0.00%     56.99% # Type of FU issued
system.cpu0.iq.FU_type_0::SimdAdd                   0      0.00%     56.99% # Type of FU issued
system.cpu0.iq.FU_type_0::SimdAddAcc                0      0.00%     56.99% # Type of FU issued
system.cpu0.iq.FU_type_0::SimdAlu                   0      0.00%     56.99% # Type of FU issued
system.cpu0.iq.FU_type_0::SimdCmp                   0      0.00%     56.99% # Type of FU issued
system.cpu0.iq.FU_type_0::SimdCvt                   0      0.00%     56.99% # Type of FU issued
system.cpu0.iq.FU_type_0::SimdMisc                  0      0.00%     56.99% # Type of FU issued
system.cpu0.iq.FU_type_0::SimdMult                  0      0.00%     56.99% # Type of FU issued
system.cpu0.iq.FU_type_0::SimdMultAcc               0      0.00%     56.99% # Type of FU issued
system.cpu0.iq.FU_type_0::SimdShift                 0      0.00%     56.99% # Type of FU issued
system.cpu0.iq.FU_type_0::SimdShiftAcc              0      0.00%     56.99% # Type of FU issued
system.cpu0.iq.FU_type_0::SimdDiv                   0      0.00%     56.99% # Type of FU issued
system.cpu0.iq.FU_type_0::SimdSqrt                  0      0.00%     56.99% # Type of FU issued
system.cpu0.iq.FU_type_0::SimdFloatAdd              0      0.00%     56.99% # Type of FU issued
system.cpu0.iq.FU_type_0::SimdFloatAlu              0      0.00%     56.99% # Type of FU issued
system.cpu0.iq.FU_type_0::SimdFloatCmp              0      0.00%     56.99% # Type of FU issued
system.cpu0.iq.FU_type_0::SimdFloatCvt              0      0.00%     56.99% # Type of FU issued
system.cpu0.iq.FU_type_0::SimdFloatDiv              0      0.00%     56.99% # Type of FU issued
system.cpu0.iq.FU_type_0::SimdFloatMisc             0      0.00%     56.99% # Type of FU issued
system.cpu0.iq.FU_type_0::SimdFloatMult             0      0.00%     56.99% # Type of FU issued
system.cpu0.iq.FU_type_0::SimdFloatMultAcc            0      0.00%     56.99% # Type of FU issued
system.cpu0.iq.FU_type_0::SimdFloatSqrt             0      0.00%     56.99% # Type of FU issued
system.cpu0.iq.FU_type_0::SimdReduceAdd             0      0.00%     56.99% # Type of FU issued
system.cpu0.iq.FU_type_0::SimdReduceAlu             0      0.00%     56.99% # Type of FU issued
system.cpu0.iq.FU_type_0::SimdReduceCmp             0      0.00%     56.99% # Type of FU issued
system.cpu0.iq.FU_type_0::SimdFloatReduceAdd            0      0.00%     56.99% # Type of FU issued
system.cpu0.iq.FU_type_0::SimdFloatReduceCmp            0      0.00%     56.99% # Type of FU issued
system.cpu0.iq.FU_type_0::SimdAes                   0      0.00%     56.99% # Type of FU issued
system.cpu0.iq.FU_type_0::SimdAesMix                0      0.00%     56.99% # Type of FU issued
system.cpu0.iq.FU_type_0::SimdSha1Hash              0      0.00%     56.99% # Type of FU issued
system.cpu0.iq.FU_type_0::SimdSha1Hash2             0      0.00%     56.99% # Type of FU issued
system.cpu0.iq.FU_type_0::SimdSha256Hash            0      0.00%     56.99% # Type of FU issued
system.cpu0.iq.FU_type_0::SimdSha256Hash2            0      0.00%     56.99% # Type of FU issued
system.cpu0.iq.FU_type_0::SimdShaSigma2             0      0.00%     56.99% # Type of FU issued
system.cpu0.iq.FU_type_0::SimdShaSigma3             0      0.00%     56.99% # Type of FU issued
system.cpu0.iq.FU_type_0::SimdPredAlu               0      0.00%     56.99% # Type of FU issued
system.cpu0.iq.FU_type_0::MemRead           435279806     31.85%     88.84% # Type of FU issued
system.cpu0.iq.FU_type_0::MemWrite          152524660     11.16%    100.00% # Type of FU issued
system.cpu0.iq.FU_type_0::FloatMemRead              8      0.00%    100.00% # Type of FU issued
system.cpu0.iq.FU_type_0::FloatMemWrite            20      0.00%    100.00% # Type of FU issued
system.cpu0.iq.FU_type_0::IprAccess                 0      0.00%    100.00% # Type of FU issued
system.cpu0.iq.FU_type_0::InstPrefetch              0      0.00%    100.00% # Type of FU issued
system.cpu0.iq.FU_type_0::total            1366617936                       # Type of FU issued
system.cpu0.iq.fp_alu_accesses                     52                       # Number of floating point alu accesses
system.cpu0.iq.fp_inst_queue_reads                102                       # Number of floating instruction queue reads
system.cpu0.iq.fp_inst_queue_wakeup_accesses           50                       # Number of floating instruction queue wakeup accesses
system.cpu0.iq.fp_inst_queue_writes                50                       # Number of floating instruction queue writes
system.cpu0.iq.fu_busy_cnt                    3182361                       # FU busy when requested
system.cpu0.iq.fu_busy_rate                  0.002329                       # FU busy rate (busy events/executed inst)
system.cpu0.iq.fu_full::No_OpClass                  0      0.00%      0.00% # attempts to use FU when none available
system.cpu0.iq.fu_full::IntAlu                 653561     20.54%     20.54% # attempts to use FU when none available
system.cpu0.iq.fu_full::IntMult                     0      0.00%     20.54% # attempts to use FU when none available
system.cpu0.iq.fu_full::IntDiv                      0      0.00%     20.54% # attempts to use FU when none available
system.cpu0.iq.fu_full::FloatAdd                    0      0.00%     20.54% # attempts to use FU when none available
system.cpu0.iq.fu_full::FloatCmp                    0      0.00%     20.54% # attempts to use FU when none available
system.cpu0.iq.fu_full::FloatCvt                    0      0.00%     20.54% # attempts to use FU when none available
system.cpu0.iq.fu_full::FloatMult                   0      0.00%     20.54% # attempts to use FU when none available
system.cpu0.iq.fu_full::FloatMultAcc                0      0.00%     20.54% # attempts to use FU when none available
system.cpu0.iq.fu_full::FloatDiv                    0      0.00%     20.54% # attempts to use FU when none available
system.cpu0.iq.fu_full::FloatMisc                   0      0.00%     20.54% # attempts to use FU when none available
system.cpu0.iq.fu_full::FloatSqrt                   0      0.00%     20.54% # attempts to use FU when none available
system.cpu0.iq.fu_full::SimdAdd                     0      0.00%     20.54% # attempts to use FU when none available
system.cpu0.iq.fu_full::SimdAddAcc                  0      0.00%     20.54% # attempts to use FU when none available
system.cpu0.iq.fu_full::SimdAlu                     0      0.00%     20.54% # attempts to use FU when none available
system.cpu0.iq.fu_full::SimdCmp                     0      0.00%     20.54% # attempts to use FU when none available
system.cpu0.iq.fu_full::SimdCvt                     0      0.00%     20.54% # attempts to use FU when none available
system.cpu0.iq.fu_full::SimdMisc                    0      0.00%     20.54% # attempts to use FU when none available
system.cpu0.iq.fu_full::SimdMult                    0      0.00%     20.54% # attempts to use FU when none available
system.cpu0.iq.fu_full::SimdMultAcc                 0      0.00%     20.54% # attempts to use FU when none available
system.cpu0.iq.fu_full::SimdShift                   0      0.00%     20.54% # attempts to use FU when none available
system.cpu0.iq.fu_full::SimdShiftAcc                0      0.00%     20.54% # attempts to use FU when none available
system.cpu0.iq.fu_full::SimdDiv                     0      0.00%     20.54% # attempts to use FU when none available
system.cpu0.iq.fu_full::SimdSqrt                    0      0.00%     20.54% # attempts to use FU when none available
system.cpu0.iq.fu_full::SimdFloatAdd                0      0.00%     20.54% # attempts to use FU when none available
system.cpu0.iq.fu_full::SimdFloatAlu                0      0.00%     20.54% # attempts to use FU when none available
system.cpu0.iq.fu_full::SimdFloatCmp                0      0.00%     20.54% # attempts to use FU when none available
system.cpu0.iq.fu_full::SimdFloatCvt                0      0.00%     20.54% # attempts to use FU when none available
system.cpu0.iq.fu_full::SimdFloatDiv                0      0.00%     20.54% # attempts to use FU when none available
system.cpu0.iq.fu_full::SimdFloatMisc               0      0.00%     20.54% # attempts to use FU when none available
system.cpu0.iq.fu_full::SimdFloatMult               0      0.00%     20.54% # attempts to use FU when none available
system.cpu0.iq.fu_full::SimdFloatMultAcc            0      0.00%     20.54% # attempts to use FU when none available
system.cpu0.iq.fu_full::SimdFloatSqrt               0      0.00%     20.54% # attempts to use FU when none available
system.cpu0.iq.fu_full::SimdReduceAdd               0      0.00%     20.54% # attempts to use FU when none available
system.cpu0.iq.fu_full::SimdReduceAlu               0      0.00%     20.54% # attempts to use FU when none available
system.cpu0.iq.fu_full::SimdReduceCmp               0      0.00%     20.54% # attempts to use FU when none available
system.cpu0.iq.fu_full::SimdFloatReduceAdd            0      0.00%     20.54% # attempts to use FU when none available
system.cpu0.iq.fu_full::SimdFloatReduceCmp            0      0.00%     20.54% # attempts to use FU when none available
system.cpu0.iq.fu_full::SimdAes                     0      0.00%     20.54% # attempts to use FU when none available
system.cpu0.iq.fu_full::SimdAesMix                  0      0.00%     20.54% # attempts to use FU when none available
system.cpu0.iq.fu_full::SimdSha1Hash                0      0.00%     20.54% # attempts to use FU when none available
system.cpu0.iq.fu_full::SimdSha1Hash2               0      0.00%     20.54% # attempts to use FU when none available
system.cpu0.iq.fu_full::SimdSha256Hash              0      0.00%     20.54% # attempts to use FU when none available
system.cpu0.iq.fu_full::SimdSha256Hash2             0      0.00%     20.54% # attempts to use FU when none available
system.cpu0.iq.fu_full::SimdShaSigma2               0      0.00%     20.54% # attempts to use FU when none available
system.cpu0.iq.fu_full::SimdShaSigma3               0      0.00%     20.54% # attempts to use FU when none available
system.cpu0.iq.fu_full::SimdPredAlu                 0      0.00%     20.54% # attempts to use FU when none available
system.cpu0.iq.fu_full::MemRead               2056729     64.63%     85.17% # attempts to use FU when none available
system.cpu0.iq.fu_full::MemWrite               472069     14.83%    100.00% # attempts to use FU when none available
system.cpu0.iq.fu_full::FloatMemRead                0      0.00%    100.00% # attempts to use FU when none available
system.cpu0.iq.fu_full::FloatMemWrite               2      0.00%    100.00% # attempts to use FU when none available
system.cpu0.iq.fu_full::IprAccess                   0      0.00%    100.00% # attempts to use FU when none available
system.cpu0.iq.fu_full::InstPrefetch                0      0.00%    100.00% # attempts to use FU when none available
system.cpu0.iq.int_alu_accesses            1365594601                       # Number of integer alu accesses
system.cpu0.iq.int_inst_queue_reads        5193362999                       # Number of integer instruction queue reads
system.cpu0.iq.int_inst_queue_wakeup_accesses   1347009564                       # Number of integer instruction queue wakeup accesses
system.cpu0.iq.int_inst_queue_writes       1422821767                       # Number of integer instruction queue writes
system.cpu0.iq.iqInstsAdded                1364429995                       # Number of instructions added to the IQ (excludes non-spec)
system.cpu0.iq.iqInstsIssued               1366617936                       # Number of instructions issued
system.cpu0.iq.iqNonSpecInstsAdded            6310421                       # Number of non-speculative instructions added to the IQ
system.cpu0.iq.iqSquashedInstsExamined       52072843                       # Number of squashed instructions iterated over during squash; mainly for profiling
system.cpu0.iq.iqSquashedInstsIssued           277153                       # Number of squashed instructions issued
system.cpu0.iq.iqSquashedNonSpecRemoved           714                       # Number of squashed non-spec instructions that were removed
system.cpu0.iq.iqSquashedOperandsExamined     23048558                       # Number of squashed operands that are examined and possibly removed from graph
system.cpu0.iq.issued_per_cycle::samples   2456667716                       # Number of insts issued each cycle
system.cpu0.iq.issued_per_cycle::mean        0.556289                       # Number of insts issued each cycle
system.cpu0.iq.issued_per_cycle::stdev       0.827225                       # Number of insts issued each cycle
system.cpu0.iq.issued_per_cycle::underflows            0      0.00%      0.00% # Number of insts issued each cycle
system.cpu0.iq.issued_per_cycle::0         1469902046     59.83%     59.83% # Number of insts issued each cycle
system.cpu0.iq.issued_per_cycle::1          714413131     29.08%     88.91% # Number of insts issued each cycle
system.cpu0.iq.issued_per_cycle::2          195047430      7.94%     96.85% # Number of insts issued each cycle
system.cpu0.iq.issued_per_cycle::3           59113273      2.41%     99.26% # Number of insts issued each cycle
system.cpu0.iq.issued_per_cycle::4           11630670      0.47%     99.73% # Number of insts issued each cycle
system.cpu0.iq.issued_per_cycle::5            3067299      0.12%     99.86% # Number of insts issued each cycle
system.cpu0.iq.issued_per_cycle::6            1966039      0.08%     99.94% # Number of insts issued each cycle
system.cpu0.iq.issued_per_cycle::7            1107907      0.05%     99.98% # Number of insts issued each cycle
system.cpu0.iq.issued_per_cycle::8             419921      0.02%    100.00% # Number of insts issued each cycle
system.cpu0.iq.issued_per_cycle::overflows            0      0.00%    100.00% # Number of insts issued each cycle
system.cpu0.iq.issued_per_cycle::min_value            0                       # Number of insts issued each cycle
system.cpu0.iq.issued_per_cycle::max_value            8                       # Number of insts issued each cycle
system.cpu0.iq.issued_per_cycle::total     2456667716                       # Number of insts issued each cycle
system.cpu0.iq.rate                          0.455759                       # Inst issue rate
system.cpu0.iq.vec_alu_accesses                     0                       # Number of vector alu accesses
system.cpu0.iq.vec_inst_queue_reads                 0                       # Number of vector instruction queue reads
system.cpu0.iq.vec_inst_queue_wakeup_accesses            0                       # Number of vector instruction queue wakeup accesses
system.cpu0.iq.vec_inst_queue_writes                0                       # Number of vector instruction queue writes
system.cpu0.itb.accesses                            0                       # DTB accesses
system.cpu0.itb.hits                                0                       # DTB hits
system.cpu0.itb.misses                              0                       # DTB misses
system.cpu0.itb.read_accesses                       0                       # DTB read accesses
system.cpu0.itb.read_hits                           0                       # DTB read hits
system.cpu0.itb.read_misses                         0                       # DTB read misses
system.cpu0.itb.write_accesses                      0                       # DTB write accesses
system.cpu0.itb.write_hits                          0                       # DTB write hits
system.cpu0.itb.write_misses                        0                       # DTB write misses
system.cpu0.memDep0.conflictingLoads         20453675                       # Number of conflicting loads.
system.cpu0.memDep0.conflictingStores         1503500                       # Number of conflicting stores.
system.cpu0.memDep0.insertedLoads           430371132                       # Number of loads inserted to the mem dependence unit.
system.cpu0.memDep0.insertedStores          155102544                       # Number of stores inserted to the mem dependence unit.
system.cpu0.misc_regfile_reads                   1886                       # number of misc regfile reads
system.cpu0.misc_regfile_writes                    22                       # number of misc regfile writes
system.cpu0.numCycles                      2998551961                       # number of cpu cycles simulated
system.cpu0.numWorkItemsCompleted                   0                       # number of work items this cpu completed
system.cpu0.numWorkItemsStarted                     0                       # number of work items this cpu started
system.cpu0.quiesceCycles                    11432361                       # Total number of cycles that CPU has spent quiesced or waiting for an interrupt
system.cpu0.rename.BlockCycles              445011003                       # Number of cycles rename is blocking
system.cpu0.rename.CommittedMaps            845207550                       # Number of HB maps that are committed
system.cpu0.rename.IQFullEvents              14568792                       # Number of times rename has blocked due to IQ full
system.cpu0.rename.IdleCycles               969574392                       # Number of cycles rename is idle
system.cpu0.rename.LQFullEvents              24400967                       # Number of times rename has blocked due to LQ full
system.cpu0.rename.ROBFullEvents                54743                       # Number of times rename has blocked due to ROB full
system.cpu0.rename.RenameLookups           1708447407                       # Number of register rename lookups that rename has made
system.cpu0.rename.RenamedInsts            1390193035                       # Number of instructions processed by rename
system.cpu0.rename.RenamedOperands          905564165                       # Number of destination operands rename has renamed
system.cpu0.rename.RunCycles                955693151                       # Number of cycles rename is running
system.cpu0.rename.SQFullEvents              36657107                       # Number of times rename has blocked due to SQ full
system.cpu0.rename.SquashCycles               9941897                       # Number of cycles rename is squashing
system.cpu0.rename.UnblockCycles             76125854                       # Number of cycles rename is unblocking
system.cpu0.rename.UndoneMaps                60356548                       # Number of HB maps that are undone due to squashing
system.cpu0.rename.fp_rename_lookups               44                       # Number of floating rename lookups
system.cpu0.rename.int_rename_lookups      1708447363                       # Number of integer rename lookups
system.cpu0.rename.serializeStallCycles        321419                       # count of cycles rename stalled for serializing inst
system.cpu0.rename.serializingInsts              5870                       # count of serializing insts renamed
system.cpu0.rename.skidInsts                 33393187                       # count of insts added to the skid buffer
system.cpu0.rename.tempSerializingInsts          5870                       # count of temporary serializing insts renamed
system.cpu0.rob.rob_reads                  3780052273                       # The number of ROB reads
system.cpu0.rob.rob_writes                 2755471833                       # The number of ROB writes
system.cpu0.timesIdled                       35925065                       # Number of times that the entire CPU went into an idle state and unscheduled itself
system.cpu0.workload.numSyscalls                 1853                       # Number of system calls
system.cpu1.branchPred.BTBCorrect                   0                       # Number of correct BTB predictions (this stat may not work properly.
system.cpu1.branchPred.BTBHitPct            85.101199                       # BTB Hit Percentage
system.cpu1.branchPred.BTBHits               21435438                       # Number of BTB hits
system.cpu1.branchPred.BTBLookups            25188174                       # Number of BTB lookups
system.cpu1.branchPred.RASInCorrect                 0                       # Number of incorrect RAS predictions.
system.cpu1.branchPred.condIncorrect          2825906                       # Number of conditional branches incorrect
system.cpu1.branchPred.condPredicted         31832824                       # Number of conditional branches predicted
system.cpu1.branchPred.indirectHits           1103480                       # Number of indirect target hits.
system.cpu1.branchPred.indirectLookups        1130079                       # Number of indirect predictor lookups.
system.cpu1.branchPred.indirectMisses           26599                       # Number of indirect misses.
system.cpu1.branchPred.lookups               36580205                       # Number of BP lookups
system.cpu1.branchPred.usedRAS                      0                       # Number of times the RAS was used to get a target.
system.cpu1.branchPredindirectMispredicted        47981                       # Number of mispredicted indirect branches.
system.cpu1.commit.amos                       2099995                       # Number of atomic instructions committed
system.cpu1.commit.branchMispredicts          2011207                       # The number of times a branch was mispredicted
system.cpu1.commit.branches                  28115440                       # Number of branches committed
system.cpu1.commit.bw_lim_events              4035494                       # number cycles where commit BW limit reached
system.cpu1.commit.commitNonSpecStalls        6300645                       # The number of times commit has been forced to stall to communicate backwards
system.cpu1.commit.commitSquashedInsts       18066247                       # The number of squashed insts skipped by commit
system.cpu1.commit.committedInsts           120045683                       # Number of instructions committed
system.cpu1.commit.committedOps             122145851                       # Number of ops (including micro ops) committed
system.cpu1.commit.committed_per_cycle::samples    529857282                       # Number of insts commited each cycle
system.cpu1.commit.committed_per_cycle::mean     0.230526                       # Number of insts commited each cycle
system.cpu1.commit.committed_per_cycle::stdev     0.976813                       # Number of insts commited each cycle
system.cpu1.commit.committed_per_cycle::underflows            0      0.00%      0.00% # Number of insts commited each cycle
system.cpu1.commit.committed_per_cycle::0    481343518     90.84%     90.84% # Number of insts commited each cycle
system.cpu1.commit.committed_per_cycle::1     23938831      4.52%     95.36% # Number of insts commited each cycle
system.cpu1.commit.committed_per_cycle::2      8139076      1.54%     96.90% # Number of insts commited each cycle
system.cpu1.commit.committed_per_cycle::3      6697678      1.26%     98.16% # Number of insts commited each cycle
system.cpu1.commit.committed_per_cycle::4      2002114      0.38%     98.54% # Number of insts commited each cycle
system.cpu1.commit.committed_per_cycle::5      1004100      0.19%     98.73% # Number of insts commited each cycle
system.cpu1.commit.committed_per_cycle::6      2352371      0.44%     99.17% # Number of insts commited each cycle
system.cpu1.commit.committed_per_cycle::7       344100      0.06%     99.24% # Number of insts commited each cycle
system.cpu1.commit.committed_per_cycle::8      4035494      0.76%    100.00% # Number of insts commited each cycle
system.cpu1.commit.committed_per_cycle::overflows            0      0.00%    100.00% # Number of insts commited each cycle
system.cpu1.commit.committed_per_cycle::min_value            0                       # Number of insts commited each cycle
system.cpu1.commit.committed_per_cycle::max_value            8                       # Number of insts commited each cycle
system.cpu1.commit.committed_per_cycle::total    529857282                       # Number of insts commited each cycle
system.cpu1.commit.fp_insts                        12                       # Number of committed floating point instructions.
system.cpu1.commit.function_calls             1797421                       # Number of function calls committed.
system.cpu1.commit.int_insts                116583300                       # Number of committed integer instructions.
system.cpu1.commit.loads                     30172798                       # Number of loads committed
system.cpu1.commit.membars                    4200112                       # Number of memory barriers committed
system.cpu1.commit.op_class_0::No_OpClass      4200112      3.44%      3.44% # Class of committed instruction
system.cpu1.commit.op_class_0::IntAlu        76654504     62.76%     66.20% # Class of committed instruction
system.cpu1.commit.op_class_0::IntMult             44      0.00%     66.20% # Class of committed instruction
system.cpu1.commit.op_class_0::IntDiv              88      0.00%     66.20% # Class of committed instruction
system.cpu1.commit.op_class_0::FloatAdd             0      0.00%     66.20% # Class of committed instruction
system.cpu1.commit.op_class_0::FloatCmp             0      0.00%     66.20% # Class of committed instruction
system.cpu1.commit.op_class_0::FloatCvt             0      0.00%     66.20% # Class of committed instruction
system.cpu1.commit.op_class_0::FloatMult            0      0.00%     66.20% # Class of committed instruction
system.cpu1.commit.op_class_0::FloatMultAcc            0      0.00%     66.20% # Class of committed instruction
system.cpu1.commit.op_class_0::FloatDiv             0      0.00%     66.20% # Class of committed instruction
system.cpu1.commit.op_class_0::FloatMisc            0      0.00%     66.20% # Class of committed instruction
system.cpu1.commit.op_class_0::FloatSqrt            0      0.00%     66.20% # Class of committed instruction
system.cpu1.commit.op_class_0::SimdAdd              0      0.00%     66.20% # Class of committed instruction
system.cpu1.commit.op_class_0::SimdAddAcc            0      0.00%     66.20% # Class of committed instruction
system.cpu1.commit.op_class_0::SimdAlu              0      0.00%     66.20% # Class of committed instruction
system.cpu1.commit.op_class_0::SimdCmp              0      0.00%     66.20% # Class of committed instruction
system.cpu1.commit.op_class_0::SimdCvt              0      0.00%     66.20% # Class of committed instruction
system.cpu1.commit.op_class_0::SimdMisc             0      0.00%     66.20% # Class of committed instruction
system.cpu1.commit.op_class_0::SimdMult             0      0.00%     66.20% # Class of committed instruction
system.cpu1.commit.op_class_0::SimdMultAcc            0      0.00%     66.20% # Class of committed instruction
system.cpu1.commit.op_class_0::SimdShift            0      0.00%     66.20% # Class of committed instruction
system.cpu1.commit.op_class_0::SimdShiftAcc            0      0.00%     66.20% # Class of committed instruction
system.cpu1.commit.op_class_0::SimdDiv              0      0.00%     66.20% # Class of committed instruction
system.cpu1.commit.op_class_0::SimdSqrt             0      0.00%     66.20% # Class of committed instruction
system.cpu1.commit.op_class_0::SimdFloatAdd            0      0.00%     66.20% # Class of committed instruction
system.cpu1.commit.op_class_0::SimdFloatAlu            0      0.00%     66.20% # Class of committed instruction
system.cpu1.commit.op_class_0::SimdFloatCmp            0      0.00%     66.20% # Class of committed instruction
system.cpu1.commit.op_class_0::SimdFloatCvt            0      0.00%     66.20% # Class of committed instruction
system.cpu1.commit.op_class_0::SimdFloatDiv            0      0.00%     66.20% # Class of committed instruction
system.cpu1.commit.op_class_0::SimdFloatMisc            0      0.00%     66.20% # Class of committed instruction
system.cpu1.commit.op_class_0::SimdFloatMult            0      0.00%     66.20% # Class of committed instruction
system.cpu1.commit.op_class_0::SimdFloatMultAcc            0      0.00%     66.20% # Class of committed instruction
system.cpu1.commit.op_class_0::SimdFloatSqrt            0      0.00%     66.20% # Class of committed instruction
system.cpu1.commit.op_class_0::SimdReduceAdd            0      0.00%     66.20% # Class of committed instruction
system.cpu1.commit.op_class_0::SimdReduceAlu            0      0.00%     66.20% # Class of committed instruction
system.cpu1.commit.op_class_0::SimdReduceCmp            0      0.00%     66.20% # Class of committed instruction
system.cpu1.commit.op_class_0::SimdFloatReduceAdd            0      0.00%     66.20% # Class of committed instruction
system.cpu1.commit.op_class_0::SimdFloatReduceCmp            0      0.00%     66.20% # Class of committed instruction
system.cpu1.commit.op_class_0::SimdAes              0      0.00%     66.20% # Class of committed instruction
system.cpu1.commit.op_class_0::SimdAesMix            0      0.00%     66.20% # Class of committed instruction
system.cpu1.commit.op_class_0::SimdSha1Hash            0      0.00%     66.20% # Class of committed instruction
system.cpu1.commit.op_class_0::SimdSha1Hash2            0      0.00%     66.20% # Class of committed instruction
system.cpu1.commit.op_class_0::SimdSha256Hash            0      0.00%     66.20% # Class of committed instruction
system.cpu1.commit.op_class_0::SimdSha256Hash2            0      0.00%     66.20% # Class of committed instruction
system.cpu1.commit.op_class_0::SimdShaSigma2            0      0.00%     66.20% # Class of committed instruction
system.cpu1.commit.op_class_0::SimdShaSigma3            0      0.00%     66.20% # Class of committed instruction
system.cpu1.commit.op_class_0::SimdPredAlu            0      0.00%     66.20% # Class of committed instruction
system.cpu1.commit.op_class_0::MemRead       32272793     26.42%     92.62% # Class of committed instruction
system.cpu1.commit.op_class_0::MemWrite       9018298      7.38%    100.00% # Class of committed instruction
system.cpu1.commit.op_class_0::FloatMemRead            0      0.00%    100.00% # Class of committed instruction
system.cpu1.commit.op_class_0::FloatMemWrite           12      0.00%    100.00% # Class of committed instruction
system.cpu1.commit.op_class_0::IprAccess            0      0.00%    100.00% # Class of committed instruction
system.cpu1.commit.op_class_0::InstPrefetch            0      0.00%    100.00% # Class of committed instruction
system.cpu1.commit.op_class_0::total        122145851                       # Class of committed instruction
system.cpu1.commit.refs                      41291103                       # Number of memory references committed
system.cpu1.commit.swp_count                        0                       # Number of s/w prefetches committed
system.cpu1.commit.vec_insts                        0                       # Number of committed Vector instructions.
system.cpu1.committedInsts                  120045683                       # Number of Instructions Simulated
system.cpu1.committedOps                    122145851                       # Number of Ops (including micro ops) Simulated
system.cpu1.cpi                              4.450881                       # CPI: Cycles Per Instruction
system.cpu1.cpi_total                        4.450881                       # CPI: Total CPI of All Threads
system.cpu1.decode.BlockedCycles            436159650                       # Number of cycles decode is blocked
system.cpu1.decode.BranchMispred               865658                       # Number of times decode detected a branch misprediction
system.cpu1.decode.BranchResolved            20144949                       # Number of times decode resolved a branch
system.cpu1.decode.DecodedInsts             147478611                       # Number of instructions handled by decode
system.cpu1.decode.IdleCycles                23355113                       # Number of cycles decode is idle
system.cpu1.decode.RunCycles                 66671588                       # Number of cycles decode is running
system.cpu1.decode.SquashCycles               2013144                       # Number of cycles decode is squashing
system.cpu1.decode.SquashedInsts              2184868                       # Number of squashed instructions handled by decode
system.cpu1.decode.UnblockCycles              5250908                       # Number of cycles decode is unblocking
system.cpu1.dtb.accesses                            0                       # DTB accesses
system.cpu1.dtb.hits                                0                       # DTB hits
system.cpu1.dtb.misses                              0                       # DTB misses
system.cpu1.dtb.read_accesses                       0                       # DTB read accesses
system.cpu1.dtb.read_hits                           0                       # DTB read hits
system.cpu1.dtb.read_misses                         0                       # DTB read misses
system.cpu1.dtb.write_accesses                      0                       # DTB write accesses
system.cpu1.dtb.write_hits                          0                       # DTB write hits
system.cpu1.dtb.write_misses                        0                       # DTB write misses
system.cpu1.fetch.Branches                   36580205                       # Number of branches that fetch encountered
system.cpu1.fetch.CacheLines                 22211687                       # Number of cache lines fetched
system.cpu1.fetch.Cycles                    506278317                       # Number of cycles fetch has run and was not squashing or blocked
system.cpu1.fetch.IcacheSquashes               254419                       # Number of outstanding Icache misses that were squashed
system.cpu1.fetch.Insts                     154451556                       # Number of instructions fetch has processed
system.cpu1.fetch.MiscStallCycles                   1                       # Number of cycles fetch has spent waiting on interrupts, or bad addresses, or out of MSHRs
system.cpu1.fetch.SquashCycles                5655686                       # Number of cycles fetch has spent squashing
system.cpu1.fetch.branchRate                 0.068463                       # Number of branch fetches per cycle
system.cpu1.fetch.icacheStallCycles          24344242                       # Number of cycles fetch is stalled on an Icache miss
system.cpu1.fetch.predictedBranches          22538918                       # Number of branches that fetch has predicted taken
system.cpu1.fetch.rate                       0.289068                       # Number of inst fetches per cycle
system.cpu1.fetch.rateDist::samples         533450403                       # Number of instructions fetched each cycle (Total)
system.cpu1.fetch.rateDist::mean             0.293471                       # Number of instructions fetched each cycle (Total)
system.cpu1.fetch.rateDist::stdev            0.713975                       # Number of instructions fetched each cycle (Total)
system.cpu1.fetch.rateDist::underflows              0      0.00%      0.00% # Number of instructions fetched each cycle (Total)
system.cpu1.fetch.rateDist::0               432805071     81.13%     81.13% # Number of instructions fetched each cycle (Total)
system.cpu1.fetch.rateDist::1                64515831     12.09%     93.23% # Number of instructions fetched each cycle (Total)
system.cpu1.fetch.rateDist::2                20660244      3.87%     97.10% # Number of instructions fetched each cycle (Total)
system.cpu1.fetch.rateDist::3                11767414      2.21%     99.31% # Number of instructions fetched each cycle (Total)
system.cpu1.fetch.rateDist::4                 3157812      0.59%     99.90% # Number of instructions fetched each cycle (Total)
system.cpu1.fetch.rateDist::5                  482369      0.09%     99.99% # Number of instructions fetched each cycle (Total)
system.cpu1.fetch.rateDist::6                   61382      0.01%    100.00% # Number of instructions fetched each cycle (Total)
system.cpu1.fetch.rateDist::7                       6      0.00%    100.00% # Number of instructions fetched each cycle (Total)
system.cpu1.fetch.rateDist::8                     274      0.00%    100.00% # Number of instructions fetched each cycle (Total)
system.cpu1.fetch.rateDist::overflows               0      0.00%    100.00% # Number of instructions fetched each cycle (Total)
system.cpu1.fetch.rateDist::min_value               0                       # Number of instructions fetched each cycle (Total)
system.cpu1.fetch.rateDist::max_value               8                       # Number of instructions fetched each cycle (Total)
system.cpu1.fetch.rateDist::total           533450403                       # Number of instructions fetched each cycle (Total)
system.cpu1.fp_regfile_reads                       12                       # number of floating regfile reads
system.cpu1.idleCycles                         858635                       # Total number of cycles that the CPU has spent unscheduled due to idling
system.cpu1.iew.branchMispredicts             2096931                       # Number of branch mispredicts detected at execute
system.cpu1.iew.exec_branches                30852756                       # Number of branches executed
system.cpu1.iew.exec_nop                            0                       # number of nop insts executed
system.cpu1.iew.exec_rate                    0.251559                       # Inst execution rate
system.cpu1.iew.exec_refs                    45560859                       # number of memory reference insts executed
system.cpu1.iew.exec_stores                  11555015                       # Number of stores executed
system.cpu1.iew.exec_swp                            0                       # number of swp insts executed
system.cpu1.iew.iewBlockCycles              354834689                       # Number of cycles IEW is blocking
system.cpu1.iew.iewDispLoadInsts             34762036                       # Number of dispatched load instructions
system.cpu1.iew.iewDispNonSpecInsts           2100696                       # Number of dispatched non-speculative instructions
system.cpu1.iew.iewDispSquashedInsts          2344768                       # Number of squashed instructions skipped by dispatch
system.cpu1.iew.iewDispStoreInsts            11921719                       # Number of dispatched store instructions
system.cpu1.iew.iewDispatchedInsts          140162386                       # Number of instructions dispatched to IQ
system.cpu1.iew.iewExecLoadInsts             34005844                       # Number of load instructions executed
system.cpu1.iew.iewExecSquashedInsts          2143330                       # Number of squashed instructions skipped in execute
system.cpu1.iew.iewExecutedInsts            134410199                       # Number of executed instructions
system.cpu1.iew.iewIQFullEvents               1947891                       # Number of times the IQ has become full, causing a stall
system.cpu1.iew.iewIdleCycles                       0                       # Number of cycles IEW is idle
system.cpu1.iew.iewLSQFullEvents             13193501                       # Number of times the LSQ has become full, causing a stall
system.cpu1.iew.iewSquashCycles               2013144                       # Number of cycles IEW is squashing
system.cpu1.iew.iewUnblockCycles             17677227                       # Number of cycles IEW is unblocking
system.cpu1.iew.lsq.thread0.blockedLoads            0                       # Number of blocked loads due to partial load-store forwarding
system.cpu1.iew.lsq.thread0.cacheBlocked       119897                       # Number of times an access to memory failed due to the cache being blocked
system.cpu1.iew.lsq.thread0.forwLoads         1058385                       # Number of loads that had data forwarded from stores
system.cpu1.iew.lsq.thread0.ignoredResponses        32301                       # Number of memory responses ignored because the instruction is squashed
system.cpu1.iew.lsq.thread0.invAddrLoads            0                       # Number of loads ignored due to an invalid address
system.cpu1.iew.lsq.thread0.invAddrSwpfs            0                       # Number of software prefetches ignored due to an invalid address
system.cpu1.iew.lsq.thread0.memOrderViolation         2621                       # Number of memory ordering violations
system.cpu1.iew.lsq.thread0.rescheduledLoads        20268                       # Number of loads that were rescheduled
system.cpu1.iew.lsq.thread0.squashedLoads      4589238                       # Number of loads squashed
system.cpu1.iew.lsq.thread0.squashedStores       803414                       # Number of stores squashed
system.cpu1.iew.memOrderViolationEvents          2621                       # Number of memory order violations
system.cpu1.iew.predictedNotTakenIncorrect       560730                       # Number of branches that were predicted not taken incorrectly
system.cpu1.iew.predictedTakenIncorrect       1536201                       # Number of branches that were predicted taken incorrectly
system.cpu1.iew.wb_consumers                 78134991                       # num instructions consuming a value
system.cpu1.iew.wb_count                    132896897                       # cumulative count of insts written-back
system.cpu1.iew.wb_fanout                    0.840332                       # average fanout of values written-back
system.cpu1.iew.wb_producers                 65659341                       # num instructions producing a value
system.cpu1.iew.wb_rate                      0.248727                       # insts written-back per cycle
system.cpu1.iew.wb_sent                     132986511                       # cumulative count of insts sent to commit
system.cpu1.int_regfile_reads               170484921                       # number of integer regfile reads
system.cpu1.int_regfile_writes               89520842                       # number of integer regfile writes
system.cpu1.ipc                              0.224675                       # IPC: Instructions Per Cycle
system.cpu1.ipc_total                        0.224675                       # IPC: Total IPC of All Threads
system.cpu1.iq.FU_type_0::No_OpClass          4200207      3.08%      3.08% # Type of FU issued
system.cpu1.iq.FU_type_0::IntAlu             86142814     63.08%     66.16% # Type of FU issued
system.cpu1.iq.FU_type_0::IntMult                  47      0.00%     66.16% # Type of FU issued
system.cpu1.iq.FU_type_0::IntDiv                   88      0.00%     66.16% # Type of FU issued
system.cpu1.iq.FU_type_0::FloatAdd                  0      0.00%     66.16% # Type of FU issued
system.cpu1.iq.FU_type_0::FloatCmp                  0      0.00%     66.16% # Type of FU issued
system.cpu1.iq.FU_type_0::FloatCvt                  0      0.00%     66.16% # Type of FU issued
system.cpu1.iq.FU_type_0::FloatMult                 0      0.00%     66.16% # Type of FU issued
system.cpu1.iq.FU_type_0::FloatMultAcc              0      0.00%     66.16% # Type of FU issued
system.cpu1.iq.FU_type_0::FloatDiv                  0      0.00%     66.16% # Type of FU issued
system.cpu1.iq.FU_type_0::FloatMisc                 0      0.00%     66.16% # Type of FU issued
system.cpu1.iq.FU_type_0::FloatSqrt                 0      0.00%     66.16% # Type of FU issued
system.cpu1.iq.FU_type_0::SimdAdd                   0      0.00%     66.16% # Type of FU issued
system.cpu1.iq.FU_type_0::SimdAddAcc                0      0.00%     66.16% # Type of FU issued
system.cpu1.iq.FU_type_0::SimdAlu                   0      0.00%     66.16% # Type of FU issued
system.cpu1.iq.FU_type_0::SimdCmp                   0      0.00%     66.16% # Type of FU issued
system.cpu1.iq.FU_type_0::SimdCvt                   0      0.00%     66.16% # Type of FU issued
system.cpu1.iq.FU_type_0::SimdMisc                  0      0.00%     66.16% # Type of FU issued
system.cpu1.iq.FU_type_0::SimdMult                  0      0.00%     66.16% # Type of FU issued
system.cpu1.iq.FU_type_0::SimdMultAcc               0      0.00%     66.16% # Type of FU issued
system.cpu1.iq.FU_type_0::SimdShift                 0      0.00%     66.16% # Type of FU issued
system.cpu1.iq.FU_type_0::SimdShiftAcc              0      0.00%     66.16% # Type of FU issued
system.cpu1.iq.FU_type_0::SimdDiv                   0      0.00%     66.16% # Type of FU issued
system.cpu1.iq.FU_type_0::SimdSqrt                  0      0.00%     66.16% # Type of FU issued
system.cpu1.iq.FU_type_0::SimdFloatAdd              0      0.00%     66.16% # Type of FU issued
system.cpu1.iq.FU_type_0::SimdFloatAlu              0      0.00%     66.16% # Type of FU issued
system.cpu1.iq.FU_type_0::SimdFloatCmp              0      0.00%     66.16% # Type of FU issued
system.cpu1.iq.FU_type_0::SimdFloatCvt              0      0.00%     66.16% # Type of FU issued
system.cpu1.iq.FU_type_0::SimdFloatDiv              0      0.00%     66.16% # Type of FU issued
system.cpu1.iq.FU_type_0::SimdFloatMisc             0      0.00%     66.16% # Type of FU issued
system.cpu1.iq.FU_type_0::SimdFloatMult             0      0.00%     66.16% # Type of FU issued
system.cpu1.iq.FU_type_0::SimdFloatMultAcc            0      0.00%     66.16% # Type of FU issued
system.cpu1.iq.FU_type_0::SimdFloatSqrt             0      0.00%     66.16% # Type of FU issued
system.cpu1.iq.FU_type_0::SimdReduceAdd             0      0.00%     66.16% # Type of FU issued
system.cpu1.iq.FU_type_0::SimdReduceAlu             0      0.00%     66.16% # Type of FU issued
system.cpu1.iq.FU_type_0::SimdReduceCmp             0      0.00%     66.16% # Type of FU issued
system.cpu1.iq.FU_type_0::SimdFloatReduceAdd            0      0.00%     66.16% # Type of FU issued
system.cpu1.iq.FU_type_0::SimdFloatReduceCmp            0      0.00%     66.16% # Type of FU issued
system.cpu1.iq.FU_type_0::SimdAes                   0      0.00%     66.16% # Type of FU issued
system.cpu1.iq.FU_type_0::SimdAesMix                0      0.00%     66.16% # Type of FU issued
system.cpu1.iq.FU_type_0::SimdSha1Hash              0      0.00%     66.16% # Type of FU issued
system.cpu1.iq.FU_type_0::SimdSha1Hash2             0      0.00%     66.16% # Type of FU issued
system.cpu1.iq.FU_type_0::SimdSha256Hash            0      0.00%     66.16% # Type of FU issued
system.cpu1.iq.FU_type_0::SimdSha256Hash2            0      0.00%     66.16% # Type of FU issued
system.cpu1.iq.FU_type_0::SimdShaSigma2             0      0.00%     66.16% # Type of FU issued
system.cpu1.iq.FU_type_0::SimdShaSigma3             0      0.00%     66.16% # Type of FU issued
system.cpu1.iq.FU_type_0::SimdPredAlu               0      0.00%     66.16% # Type of FU issued
system.cpu1.iq.FU_type_0::MemRead            36710426     26.88%     93.04% # Type of FU issued
system.cpu1.iq.FU_type_0::MemWrite            9499935      6.96%    100.00% # Type of FU issued
system.cpu1.iq.FU_type_0::FloatMemRead              0      0.00%    100.00% # Type of FU issued
system.cpu1.iq.FU_type_0::FloatMemWrite            12      0.00%    100.00% # Type of FU issued
system.cpu1.iq.FU_type_0::IprAccess                 0      0.00%    100.00% # Type of FU issued
system.cpu1.iq.FU_type_0::InstPrefetch              0      0.00%    100.00% # Type of FU issued
system.cpu1.iq.FU_type_0::total             136553529                       # Type of FU issued
system.cpu1.iq.fp_alu_accesses                     14                       # Number of floating point alu accesses
system.cpu1.iq.fp_inst_queue_reads                 26                       # Number of floating instruction queue reads
system.cpu1.iq.fp_inst_queue_wakeup_accesses           12                       # Number of floating instruction queue wakeup accesses
system.cpu1.iq.fp_inst_queue_writes                12                       # Number of floating instruction queue writes
system.cpu1.iq.fu_busy_cnt                    2899947                       # FU busy when requested
system.cpu1.iq.fu_busy_rate                  0.021237                       # FU busy rate (busy events/executed inst)
system.cpu1.iq.fu_full::No_OpClass                  0      0.00%      0.00% # attempts to use FU when none available
system.cpu1.iq.fu_full::IntAlu                 589133     20.32%     20.32% # attempts to use FU when none available
system.cpu1.iq.fu_full::IntMult                     0      0.00%     20.32% # attempts to use FU when none available
system.cpu1.iq.fu_full::IntDiv                      0      0.00%     20.32% # attempts to use FU when none available
system.cpu1.iq.fu_full::FloatAdd                    0      0.00%     20.32% # attempts to use FU when none available
system.cpu1.iq.fu_full::FloatCmp                    0      0.00%     20.32% # attempts to use FU when none available
system.cpu1.iq.fu_full::FloatCvt                    0      0.00%     20.32% # attempts to use FU when none available
system.cpu1.iq.fu_full::FloatMult                   0      0.00%     20.32% # attempts to use FU when none available
system.cpu1.iq.fu_full::FloatMultAcc                0      0.00%     20.32% # attempts to use FU when none available
system.cpu1.iq.fu_full::FloatDiv                    0      0.00%     20.32% # attempts to use FU when none available
system.cpu1.iq.fu_full::FloatMisc                   0      0.00%     20.32% # attempts to use FU when none available
system.cpu1.iq.fu_full::FloatSqrt                   0      0.00%     20.32% # attempts to use FU when none available
system.cpu1.iq.fu_full::SimdAdd                     0      0.00%     20.32% # attempts to use FU when none available
system.cpu1.iq.fu_full::SimdAddAcc                  0      0.00%     20.32% # attempts to use FU when none available
system.cpu1.iq.fu_full::SimdAlu                     0      0.00%     20.32% # attempts to use FU when none available
system.cpu1.iq.fu_full::SimdCmp                     0      0.00%     20.32% # attempts to use FU when none available
system.cpu1.iq.fu_full::SimdCvt                     0      0.00%     20.32% # attempts to use FU when none available
system.cpu1.iq.fu_full::SimdMisc                    0      0.00%     20.32% # attempts to use FU when none available
system.cpu1.iq.fu_full::SimdMult                    0      0.00%     20.32% # attempts to use FU when none available
system.cpu1.iq.fu_full::SimdMultAcc                 0      0.00%     20.32% # attempts to use FU when none available
system.cpu1.iq.fu_full::SimdShift                   0      0.00%     20.32% # attempts to use FU when none available
system.cpu1.iq.fu_full::SimdShiftAcc                0      0.00%     20.32% # attempts to use FU when none available
system.cpu1.iq.fu_full::SimdDiv                     0      0.00%     20.32% # attempts to use FU when none available
system.cpu1.iq.fu_full::SimdSqrt                    0      0.00%     20.32% # attempts to use FU when none available
system.cpu1.iq.fu_full::SimdFloatAdd                0      0.00%     20.32% # attempts to use FU when none available
system.cpu1.iq.fu_full::SimdFloatAlu                0      0.00%     20.32% # attempts to use FU when none available
system.cpu1.iq.fu_full::SimdFloatCmp                0      0.00%     20.32% # attempts to use FU when none available
system.cpu1.iq.fu_full::SimdFloatCvt                0      0.00%     20.32% # attempts to use FU when none available
system.cpu1.iq.fu_full::SimdFloatDiv                0      0.00%     20.32% # attempts to use FU when none available
system.cpu1.iq.fu_full::SimdFloatMisc               0      0.00%     20.32% # attempts to use FU when none available
system.cpu1.iq.fu_full::SimdFloatMult               0      0.00%     20.32% # attempts to use FU when none available
system.cpu1.iq.fu_full::SimdFloatMultAcc            0      0.00%     20.32% # attempts to use FU when none available
system.cpu1.iq.fu_full::SimdFloatSqrt               0      0.00%     20.32% # attempts to use FU when none available
system.cpu1.iq.fu_full::SimdReduceAdd               0      0.00%     20.32% # attempts to use FU when none available
system.cpu1.iq.fu_full::SimdReduceAlu               0      0.00%     20.32% # attempts to use FU when none available
system.cpu1.iq.fu_full::SimdReduceCmp               0      0.00%     20.32% # attempts to use FU when none available
system.cpu1.iq.fu_full::SimdFloatReduceAdd            0      0.00%     20.32% # attempts to use FU when none available
system.cpu1.iq.fu_full::SimdFloatReduceCmp            0      0.00%     20.32% # attempts to use FU when none available
system.cpu1.iq.fu_full::SimdAes                     0      0.00%     20.32% # attempts to use FU when none available
system.cpu1.iq.fu_full::SimdAesMix                  0      0.00%     20.32% # attempts to use FU when none available
system.cpu1.iq.fu_full::SimdSha1Hash                0      0.00%     20.32% # attempts to use FU when none available
system.cpu1.iq.fu_full::SimdSha1Hash2               0      0.00%     20.32% # attempts to use FU when none available
system.cpu1.iq.fu_full::SimdSha256Hash              0      0.00%     20.32% # attempts to use FU when none available
system.cpu1.iq.fu_full::SimdSha256Hash2             0      0.00%     20.32% # attempts to use FU when none available
system.cpu1.iq.fu_full::SimdShaSigma2               0      0.00%     20.32% # attempts to use FU when none available
system.cpu1.iq.fu_full::SimdShaSigma3               0      0.00%     20.32% # attempts to use FU when none available
system.cpu1.iq.fu_full::SimdPredAlu                 0      0.00%     20.32% # attempts to use FU when none available
system.cpu1.iq.fu_full::MemRead               1878518     64.78%     85.09% # attempts to use FU when none available
system.cpu1.iq.fu_full::MemWrite               432294     14.91%    100.00% # attempts to use FU when none available
[...]
system.cpu1.dcache.WriteReq_hits::total       5179738                       # number of WriteReq hits
system.cpu1.dcache.WriteReq_misses::.cpu1.data      3838129                       # number of WriteReq misses
system.cpu1.dcache.WriteReq_misses::total      3838129                       # number of WriteReq misses
system.cpu1.dcache.WriteReq_miss_latency::.cpu1.data 463788930033                       # number of WriteReq miss cycles
system.cpu1.dcache.WriteReq_miss_latency::total 463788930033                       # number of WriteReq miss cycles
system.cpu1.dcache.WriteReq_accesses::.cpu1.data      9017867                       # number of WriteReq accesses(hits+misses)
system.cpu1.dcache.WriteReq_accesses::total      9017867                       # number of WriteReq accesses(hits+misses)
system.cpu1.dcache.WriteReq_miss_rate::.cpu1.data     0.425614                       # miss rate for WriteReq accesses
system.cpu1.dcache.WriteReq_miss_rate::total     0.425614                       # miss rate for WriteReq accesses
system.cpu1.dcache.WriteReq_avg_miss_latency::.cpu1.data 120837.243884                       # average WriteReq miss latency
system.cpu1.dcache.WriteReq_avg_miss_latency::total 120837.243884                       # average WriteReq miss latency
system.cpu1.dcache.WriteReq_mshr_hits::.cpu1.data      3026264                       # number of WriteReq MSHR hits
system.cpu1.dcache.WriteReq_mshr_hits::total      3026264                       # number of WriteReq MSHR hits
system.cpu1.dcache.WriteReq_mshr_misses::.cpu1.data       811865                       # number of WriteReq MSHR misses
system.cpu1.dcache.WriteReq_mshr_misses::total       811865                       # number of WriteReq MSHR misses
system.cpu1.dcache.WriteReq_mshr_miss_latency::.cpu1.data  94378227497                       # number of WriteReq MSHR miss cycles
system.cpu1.dcache.WriteReq_mshr_miss_latency::total  94378227497                       # number of WriteReq MSHR miss cycles
system.cpu1.dcache.WriteReq_mshr_miss_rate::.cpu1.data     0.090028                       # mshr miss rate for WriteReq accesses
system.cpu1.dcache.WriteReq_mshr_miss_rate::total     0.090028                       # mshr miss rate for WriteReq accesses
system.cpu1.dcache.WriteReq_avg_mshr_miss_latency::.cpu1.data 116248.671266                       # average WriteReq mshr miss latency
system.cpu1.dcache.WriteReq_avg_mshr_miss_latency::total 116248.671266                       # average WriteReq mshr miss latency
system.cpu1.dcache.LoadLockedReq_hits::.cpu1.data          395                       # number of LoadLockedReq hits
system.cpu1.dcache.LoadLockedReq_hits::total          395                       # number of LoadLockedReq hits
system.cpu1.dcache.LoadLockedReq_misses::.cpu1.data          100                       # number of LoadLockedReq misses
system.cpu1.dcache.LoadLockedReq_misses::total          100                       # number of LoadLockedReq misses
system.cpu1.dcache.LoadLockedReq_miss_latency::.cpu1.data      3027500                       # number of LoadLockedReq miss cycles
system.cpu1.dcache.LoadLockedReq_miss_latency::total      3027500                       # number of LoadLockedReq miss cycles
system.cpu1.dcache.LoadLockedReq_accesses::.cpu1.data          495                       # number of LoadLockedReq accesses(hits+misses)
system.cpu1.dcache.LoadLockedReq_accesses::total          495                       # number of LoadLockedReq accesses(hits+misses)
system.cpu1.dcache.LoadLockedReq_miss_rate::.cpu1.data     0.202020                       # miss rate for LoadLockedReq accesses
system.cpu1.dcache.LoadLockedReq_miss_rate::total     0.202020                       # miss rate for LoadLockedReq accesses
system.cpu1.dcache.LoadLockedReq_avg_miss_latency::.cpu1.data        30275                       # average LoadLockedReq miss latency
system.cpu1.dcache.LoadLockedReq_avg_miss_latency::total        30275                       # average LoadLockedReq miss latency
system.cpu1.dcache.LoadLockedReq_mshr_hits::.cpu1.data           55                       # number of LoadLockedReq MSHR hits
system.cpu1.dcache.LoadLockedReq_mshr_hits::total           55                       # number of LoadLockedReq MSHR hits
system.cpu1.dcache.LoadLockedReq_mshr_misses::.cpu1.data           45                       # number of LoadLockedReq MSHR misses
system.cpu1.dcache.LoadLockedReq_mshr_misses::total           45                       # number of LoadLockedReq MSHR misses
system.cpu1.dcache.LoadLockedReq_mshr_miss_latency::.cpu1.data      2514000                       # number of LoadLockedReq MSHR miss cycles
system.cpu1.dcache.LoadLockedReq_mshr_miss_latency::total      2514000                       # number of LoadLockedReq MSHR miss cycles
system.cpu1.dcache.LoadLockedReq_mshr_miss_rate::.cpu1.data     0.090909                       # mshr miss rate for LoadLockedReq accesses
system.cpu1.dcache.LoadLockedReq_mshr_miss_rate::total     0.090909                       # mshr miss rate for LoadLockedReq accesses
system.cpu1.dcache.LoadLockedReq_avg_mshr_miss_latency::.cpu1.data 55866.666667                       # average LoadLockedReq mshr miss latency
system.cpu1.dcache.LoadLockedReq_avg_mshr_miss_latency::total 55866.666667                       # average LoadLockedReq mshr miss latency
system.cpu1.dcache.StoreCondReq_hits::.cpu1.data          340                       # number of StoreCondReq hits
system.cpu1.dcache.StoreCondReq_hits::total          340                       # number of StoreCondReq hits
system.cpu1.dcache.StoreCondReq_misses::.cpu1.data          102                       # number of StoreCondReq misses
system.cpu1.dcache.StoreCondReq_misses::total          102                       # number of StoreCondReq misses
system.cpu1.dcache.StoreCondReq_miss_latency::.cpu1.data       405000                       # number of StoreCondReq miss cycles
system.cpu1.dcache.StoreCondReq_miss_latency::total       405000                       # number of StoreCondReq miss cycles
system.cpu1.dcache.StoreCondReq_accesses::.cpu1.data          442                       # number of StoreCondReq accesses(hits+misses)
system.cpu1.dcache.StoreCondReq_accesses::total          442                       # number of StoreCondReq accesses(hits+misses)
system.cpu1.dcache.StoreCondReq_miss_rate::.cpu1.data     0.230769                       # miss rate for StoreCondReq accesses
system.cpu1.dcache.StoreCondReq_miss_rate::total     0.230769                       # miss rate for StoreCondReq accesses
system.cpu1.dcache.StoreCondReq_avg_miss_latency::.cpu1.data  3970.588235                       # average StoreCondReq miss latency
system.cpu1.dcache.StoreCondReq_avg_miss_latency::total  3970.588235                       # average StoreCondReq miss latency
system.cpu1.dcache.StoreCondReq_mshr_misses::.cpu1.data          102                       # number of StoreCondReq MSHR misses
system.cpu1.dcache.StoreCondReq_mshr_misses::total          102                       # number of StoreCondReq MSHR misses
system.cpu1.dcache.StoreCondReq_mshr_miss_latency::.cpu1.data       304000                       # number of StoreCondReq MSHR miss cycles
system.cpu1.dcache.StoreCondReq_mshr_miss_latency::total       304000                       # number of StoreCondReq MSHR miss cycles
system.cpu1.dcache.StoreCondReq_mshr_miss_rate::.cpu1.data     0.230769                       # mshr miss rate for StoreCondReq accesses
system.cpu1.dcache.StoreCondReq_mshr_miss_rate::total     0.230769                       # mshr miss rate for StoreCondReq accesses
system.cpu1.dcache.StoreCondReq_avg_mshr_miss_latency::.cpu1.data  2980.392157                       # average StoreCondReq mshr miss latency
system.cpu1.dcache.StoreCondReq_avg_mshr_miss_latency::total  2980.392157                       # average StoreCondReq mshr miss latency
system.cpu1.dcache.StoreCondFailReq_miss_latency::.cpu1.data        33500                       # number of StoreCondFailReq miss cycles
system.cpu1.dcache.StoreCondFailReq_miss_latency::total        33500                       # number of StoreCondFailReq miss cycles
system.cpu1.dcache.StoreCondFailReq_avg_miss_latency::.cpu1.data          inf                       # average StoreCondFailReq miss latency
system.cpu1.dcache.StoreCondFailReq_avg_miss_latency::total          inf                       # average StoreCondFailReq miss latency
system.cpu1.dcache.StoreCondFailReq_mshr_miss_latency::.cpu1.data        32500                       # number of StoreCondFailReq MSHR miss cycles
system.cpu1.dcache.StoreCondFailReq_mshr_miss_latency::total        32500                       # number of StoreCondFailReq MSHR miss cycles
system.cpu1.dcache.StoreCondFailReq_avg_mshr_miss_latency::.cpu1.data          inf                       # average StoreCondFailReq mshr miss latency
system.cpu1.dcache.StoreCondFailReq_avg_mshr_miss_latency::total          inf                       # average StoreCondFailReq mshr miss latency
system.cpu1.dcache.SwapReq_hits::.cpu1.data      1326291                       # number of SwapReq hits
system.cpu1.dcache.SwapReq_hits::total        1326291                       # number of SwapReq hits
system.cpu1.dcache.SwapReq_misses::.cpu1.data       773704                       # number of SwapReq misses
system.cpu1.dcache.SwapReq_misses::total       773704                       # number of SwapReq misses
system.cpu1.dcache.SwapReq_miss_latency::.cpu1.data  79307948500                       # number of SwapReq miss cycles
system.cpu1.dcache.SwapReq_miss_latency::total  79307948500                       # number of SwapReq miss cycles
system.cpu1.dcache.SwapReq_accesses::.cpu1.data      2099995                       # number of SwapReq accesses(hits+misses)
system.cpu1.dcache.SwapReq_accesses::total      2099995                       # number of SwapReq accesses(hits+misses)
system.cpu1.dcache.SwapReq_miss_rate::.cpu1.data     0.368431                       # miss rate for SwapReq accesses
system.cpu1.dcache.SwapReq_miss_rate::total     0.368431                       # miss rate for SwapReq accesses
system.cpu1.dcache.SwapReq_avg_miss_latency::.cpu1.data 102504.250333                       # average SwapReq miss latency
system.cpu1.dcache.SwapReq_avg_miss_latency::total 102504.250333                       # average SwapReq miss latency
system.cpu1.dcache.SwapReq_mshr_misses::.cpu1.data       773704                       # number of SwapReq MSHR misses
system.cpu1.dcache.SwapReq_mshr_misses::total       773704                       # number of SwapReq MSHR misses
system.cpu1.dcache.SwapReq_mshr_miss_latency::.cpu1.data  78534244500                       # number of SwapReq MSHR miss cycles
system.cpu1.dcache.SwapReq_mshr_miss_latency::total  78534244500                       # number of SwapReq MSHR miss cycles
system.cpu1.dcache.SwapReq_mshr_miss_rate::.cpu1.data     0.368431                       # mshr miss rate for SwapReq accesses
system.cpu1.dcache.SwapReq_mshr_miss_rate::total     0.368431                       # mshr miss rate for SwapReq accesses
system.cpu1.dcache.SwapReq_avg_mshr_miss_latency::.cpu1.data 101504.250333                       # average SwapReq mshr miss latency
system.cpu1.dcache.SwapReq_avg_mshr_miss_latency::total 101504.250333                       # average SwapReq mshr miss latency
system.cpu1.dcache.tags.pwrStateResidencyTicks::UNDEFINED 1504992160500                       # Cumulative time (in ticks) in various power states
system.cpu1.dcache.tags.tagsinuse           28.716063                       # Cycle average of tags in use
system.cpu1.dcache.tags.total_refs           36562389                       # Total number of references to valid blocks.
system.cpu1.dcache.tags.sampled_refs          2589897                       # Sample count of references to valid blocks.
system.cpu1.dcache.tags.avg_refs            14.117314                       # Average number of references to valid blocks.
system.cpu1.dcache.tags.warmup_cycle        346806000                       # Cycle when the warmup percentage was hit.
system.cpu1.dcache.tags.occ_blocks::.cpu1.data    28.716063                       # Average occupied blocks per requestor
system.cpu1.dcache.tags.occ_percent::.cpu1.data     0.897377                       # Average percentage of cache occupancy
system.cpu1.dcache.tags.occ_percent::total     0.897377                       # Average percentage of cache occupancy
system.cpu1.dcache.tags.occ_task_id_blocks::1024           29                       # Occupied blocks per task id
system.cpu1.dcache.tags.age_task_id_blocks_1024::0            8                       # Occupied blocks per task id
system.cpu1.dcache.tags.age_task_id_blocks_1024::1           21                       # Occupied blocks per task id
system.cpu1.dcache.tags.occ_task_id_percent::1024     0.906250                       # Percentage of cache occupancy per task id
system.cpu1.dcache.tags.tag_accesses         89690238                       # Number of tag accesses
system.cpu1.dcache.tags.data_accesses        89690238                       # Number of data accesses
system.cpu_clk_domain.clock                       500                       # Clock period in ticks
system.tol2bus.pwrStateResidencyTicks::UNDEFINED 1504992160500                       # Cumulative time (in ticks) in various power states
system.tol2bus.trans_dist::ReadResp          64784706                       # Transaction distribution
system.tol2bus.trans_dist::WritebackDirty     11480724                       # Transaction distribution
system.tol2bus.trans_dist::WritebackClean     64337752                       # Transaction distribution
system.tol2bus.trans_dist::CleanEvict        32194265                       # Transaction distribution
system.tol2bus.trans_dist::HardPFReq         32536597                       # Transaction distribution
system.tol2bus.trans_dist::HardPFResp               7                       # Transaction distribution
system.tol2bus.trans_dist::UpgradeReq             342                       # Transaction distribution
system.tol2bus.trans_dist::SCUpgradeReq           277                       # Transaction distribution
system.tol2bus.trans_dist::UpgradeResp            619                       # Transaction distribution
system.tol2bus.trans_dist::SCUpgradeFailReq            1                       # Transaction distribution
system.tol2bus.trans_dist::UpgradeFailResp            1                       # Transaction distribution
system.tol2bus.trans_dist::ReadExReq          7114921                       # Transaction distribution
system.tol2bus.trans_dist::ReadExResp         7114921                       # Transaction distribution
system.tol2bus.trans_dist::ReadCleanReq      36928790                       # Transaction distribution
system.tol2bus.trans_dist::ReadSharedReq     27855917                       # Transaction distribution
system.tol2bus.trans_dist::InvalidateReq         1820                       # Transaction distribution
system.tol2bus.trans_dist::InvalidateResp         1820                       # Transaction distribution
system.tol2bus.pkt_count_system.cpu0.icache.mem_side::system.l2.cpu_side    110694415                       # Packet count per connected master and slave (bytes)
system.tol2bus.pkt_count_system.cpu0.dcache.mem_side::system.l2.cpu_side     97147073                       # Packet count per connected master and slave (bytes)
system.tol2bus.pkt_count_system.cpu1.icache.mem_side::system.l2.cpu_side        91888                       # Packet count per connected master and slave (bytes)
system.tol2bus.pkt_count_system.cpu1.dcache.mem_side::system.l2.cpu_side      7768376                       # Packet count per connected master and slave (bytes)
system.tol2bus.pkt_count::total             215701752                       # Packet count per connected master and slave (bytes)
system.tol2bus.pkt_size_system.cpu0.icache.mem_side::system.l2.cpu_side   4722960960                       # Cumulative packet size per connected master and slave (bytes)
system.tol2bus.pkt_size_system.cpu0.dcache.mem_side::system.l2.cpu_side   4144823296                       # Cumulative packet size per connected master and slave (bytes)
system.tol2bus.pkt_size_system.cpu1.icache.mem_side::system.l2.cpu_side      3919872                       # Cumulative packet size per connected master and slave (bytes)
system.tol2bus.pkt_size_system.cpu1.dcache.mem_side::system.l2.cpu_side    331354240                       # Cumulative packet size per connected master and slave (bytes)
system.tol2bus.pkt_size::total             9203058368                       # Cumulative packet size per connected master and slave (bytes)
system.tol2bus.snoops                        68651735                       # Total snoops (count)
system.tol2bus.snoopTraffic                 250901184                       # Total snoop traffic (bytes)
system.tol2bus.snoop_fanout::samples        140565963                       # Request fanout histogram
system.tol2bus.snoop_fanout::mean            0.074515                       # Request fanout histogram
system.tol2bus.snoop_fanout::stdev           0.264491                       # Request fanout histogram
system.tol2bus.snoop_fanout::underflows             0      0.00%      0.00% # Request fanout histogram
system.tol2bus.snoop_fanout::0              130161503     92.60%     92.60% # Request fanout histogram
system.tol2bus.snoop_fanout::1               10334664      7.35%     99.95% # Request fanout histogram
system.tol2bus.snoop_fanout::2                  69796      0.05%    100.00% # Request fanout histogram
system.tol2bus.snoop_fanout::3                      0      0.00%    100.00% # Request fanout histogram
system.tol2bus.snoop_fanout::4                      0      0.00%    100.00% # Request fanout histogram
system.tol2bus.snoop_fanout::5                      0      0.00%    100.00% # Request fanout histogram
system.tol2bus.snoop_fanout::6                      0      0.00%    100.00% # Request fanout histogram
system.tol2bus.snoop_fanout::7                      0      0.00%    100.00% # Request fanout histogram
system.tol2bus.snoop_fanout::8                      0      0.00%    100.00% # Request fanout histogram
system.tol2bus.snoop_fanout::overflows              0      0.00%    100.00% # Request fanout histogram
system.tol2bus.snoop_fanout::min_value              0                       # Request fanout histogram
system.tol2bus.snoop_fanout::max_value              2                       # Request fanout histogram
system.tol2bus.snoop_fanout::total          140565963                       # Request fanout histogram
system.tol2bus.reqLayer0.occupancy       143825993448                       # Layer occupancy (ticks)
system.tol2bus.reqLayer0.utilization              9.6                       # Layer utilization (%)
system.tol2bus.respLayer1.occupancy       48621472421                       # Layer occupancy (ticks)
system.tol2bus.respLayer1.utilization             3.2                       # Layer utilization (%)
system.tol2bus.respLayer0.occupancy       55354410597                       # Layer occupancy (ticks)
system.tol2bus.respLayer0.utilization             3.7                       # Layer utilization (%)
system.tol2bus.respLayer3.occupancy        3885068257                       # Layer occupancy (ticks)
system.tol2bus.respLayer3.utilization             0.3                       # Layer utilization (%)
system.tol2bus.respLayer2.occupancy          45968982                       # Layer occupancy (ticks)
system.tol2bus.respLayer2.utilization             0.0                       # Layer utilization (%)
system.tol2bus.snoopLayer0.occupancy            10506                       # Layer occupancy (ticks)
system.tol2bus.snoopLayer0.utilization            0.0                       # Layer utilization (%)

---------- End Simulation Statistics   ----------
