
---------- Begin Simulation Statistics ----------
final_tick                               1167584844000                       # Number of ticks from beginning of simulation (restored from checkpoints and never reset)
host_inst_rate                                 101140                       # Simulator instruction rate (inst/s)
host_mem_usage                                 739556                       # Number of bytes of host memory used
host_op_rate                                   101435                       # Simulator op (including micro ops) rate (op/s)
host_seconds                                 14247.27                       # Real time elapsed on the host
host_tick_rate                               81951480                       # Simulator tick rate (ticks/s)
sim_freq                                 1000000000000                       # Frequency of simulated ticks
sim_insts                                  1440966366                       # Number of instructions simulated
sim_ops                                    1445171374                       # Number of ops (including micro ops) simulated
sim_seconds                                  1.167585                       # Number of seconds simulated
sim_ticks                                1167584844000                       # Number of ticks simulated
system.cpu0.branchPred.BTBCorrect                   0                       # Number of correct BTB predictions (this stat may not work properly.
system.cpu0.branchPred.BTBHitPct            87.957048                       # BTB Hit Percentage
system.cpu0.branchPred.BTBHits              167525206                       # Number of BTB hits
system.cpu0.branchPred.BTBLookups           190462516                       # Number of BTB lookups
system.cpu0.branchPred.RASInCorrect                 0                       # Number of incorrect RAS predictions.
system.cpu0.branchPred.condIncorrect         14814950                       # Number of conditional branches incorrect
system.cpu0.branchPred.condPredicted        258511439                       # Number of conditional branches predicted
system.cpu0.branchPred.indirectHits          20664079                       # Number of indirect target hits.
system.cpu0.branchPred.indirectLookups       21297085                       # Number of indirect predictor lookups.
system.cpu0.branchPred.indirectMisses          633006                       # Number of indirect misses.
system.cpu0.branchPred.lookups              327261014                       # Number of BP lookups
system.cpu0.branchPred.usedRAS                      0                       # Number of times the RAS was used to get a target.
system.cpu0.branchPredindirectMispredicted      2150283                       # Number of mispredicted indirect branches.
system.cpu0.commit.amos                       1050479                       # Number of atomic instructions committed
system.cpu0.commit.branchMispredicts          9066748                       # The number of times a branch was mispredicted
system.cpu0.commit.branches                 313653758                       # Number of branches committed
system.cpu0.commit.bw_lim_events             30705562                       # number cycles where commit BW limit reached
system.cpu0.commit.commitNonSpecStalls        3160682                       # The number of times commit has been forced to stall to communicate backwards
system.cpu0.commit.commitSquashedInsts       44302242                       # The number of squashed insts skipped by commit
system.cpu0.commit.committedInsts          1250506715                       # Number of instructions committed
system.cpu0.commit.committedOps            1251560481                       # Number of ops (including micro ops) committed
system.cpu0.commit.committed_per_cycle::samples   2172067635                       # Number of insts commited each cycle
system.cpu0.commit.committed_per_cycle::mean     0.576207                       # Number of insts commited each cycle
system.cpu0.commit.committed_per_cycle::stdev     1.300404                       # Number of insts commited each cycle
system.cpu0.commit.committed_per_cycle::underflows            0      0.00%      0.00% # Number of insts commited each cycle
system.cpu0.commit.committed_per_cycle::0   1548377459     71.29%     71.29% # Number of insts commited each cycle
system.cpu0.commit.committed_per_cycle::1    369730348     17.02%     88.31% # Number of insts commited each cycle
system.cpu0.commit.committed_per_cycle::2     97339879      4.48%     92.79% # Number of insts commited each cycle
system.cpu0.commit.committed_per_cycle::3     89493246      4.12%     96.91% # Number of insts commited each cycle
system.cpu0.commit.committed_per_cycle::4     22270580      1.03%     97.93% # Number of insts commited each cycle
system.cpu0.commit.committed_per_cycle::5      5636054      0.26%     98.19% # Number of insts commited each cycle
system.cpu0.commit.committed_per_cycle::6      3837998      0.18%     98.37% # Number of insts commited each cycle
system.cpu0.commit.committed_per_cycle::7      4676509      0.22%     98.59% # Number of insts commited each cycle
system.cpu0.commit.committed_per_cycle::8     30705562      1.41%    100.00% # Number of insts commited each cycle
system.cpu0.commit.committed_per_cycle::overflows            0      0.00%    100.00% # Number of insts commited each cycle
system.cpu0.commit.committed_per_cycle::min_value            0                       # Number of insts commited each cycle
system.cpu0.commit.committed_per_cycle::max_value            8                       # Number of insts commited each cycle
system.cpu0.commit.committed_per_cycle::total   2172067635                       # Number of insts commited each cycle
system.cpu0.commit.fp_insts                        50                       # Number of committed floating point instructions.
system.cpu0.commit.function_calls            24112931                       # Number of function calls committed.
system.cpu0.commit.int_insts               1209806736                       # Number of committed integer instructions.
system.cpu0.commit.loads                    388697264                       # Number of loads committed
system.cpu0.commit.membars                    2104089                       # Number of memory barriers committed
system.cpu0.commit.op_class_0::No_OpClass      2104095      0.17%      0.17% # Class of committed instruction
system.cpu0.commit.op_class_0::IntAlu       699521773     55.89%     56.06% # Class of committed instruction
system.cpu0.commit.op_class_0::IntMult       11831886      0.95%     57.01% # Class of committed instruction
system.cpu0.commit.op_class_0::IntDiv         2099835      0.17%     57.17% # Class of committed instruction
system.cpu0.commit.op_class_0::FloatAdd             0      0.00%     57.17% # Class of committed instruction
system.cpu0.commit.op_class_0::FloatCmp             4      0.00%     57.17% # Class of committed instruction
system.cpu0.commit.op_class_0::FloatCvt            12      0.00%     57.17% # Class of committed instruction
system.cpu0.commit.op_class_0::FloatMult            0      0.00%     57.17% # Class of committed instruction
system.cpu0.commit.op_class_0::FloatMultAcc            0      0.00%     57.17% # Class of committed instruction
system.cpu0.commit.op_class_0::FloatDiv             2      0.00%     57.17% # Class of committed instruction
system.cpu0.commit.op_class_0::FloatMisc            4      0.00%     57.17% # Class of committed instruction
system.cpu0.commit.op_class_0::FloatSqrt            0      0.00%     57.17% # Class of committed instruction
system.cpu0.commit.op_class_0::SimdAdd              0      0.00%     57.17% # Class of committed instruction
system.cpu0.commit.op_class_0::SimdAddAcc            0      0.00%     57.17% # Class of committed instruction
system.cpu0.commit.op_class_0::SimdAlu              0      0.00%     57.17% # Class of committed instruction
system.cpu0.commit.op_class_0::SimdCmp              0      0.00%     57.17% # Class of committed instruction
system.cpu0.commit.op_class_0::SimdCvt              0      0.00%     57.17% # Class of committed instruction
system.cpu0.commit.op_class_0::SimdMisc             0      0.00%     57.17% # Class of committed instruction
system.cpu0.commit.op_class_0::SimdMult             0      0.00%     57.17% # Class of committed instruction
system.cpu0.commit.op_class_0::SimdMultAcc            0      0.00%     57.17% # Class of committed instruction
system.cpu0.commit.op_class_0::SimdShift            0      0.00%     57.17% # Class of committed instruction
system.cpu0.commit.op_class_0::SimdShiftAcc            0      0.00%     57.17% # Class of committed instruction
system.cpu0.commit.op_class_0::SimdDiv              0      0.00%     57.17% # Class of committed instruction
system.cpu0.commit.op_class_0::SimdSqrt             0      0.00%     57.17% # Class of committed instruction
system.cpu0.commit.op_class_0::SimdFloatAdd            0      0.00%     57.17% # Class of committed instruction
system.cpu0.commit.op_class_0::SimdFloatAlu            0      0.00%     57.17% # Class of committed instruction
system.cpu0.commit.op_class_0::SimdFloatCmp            0      0.00%     57.17% # Class of committed instruction
system.cpu0.commit.op_class_0::SimdFloatCvt            0      0.00%     57.17% # Class of committed instruction
system.cpu0.commit.op_class_0::SimdFloatDiv            0      0.00%     57.17% # Class of committed instruction
system.cpu0.commit.op_class_0::SimdFloatMisc            0      0.00%     57.17% # Class of committed instruction
system.cpu0.commit.op_class_0::SimdFloatMult            0      0.00%     57.17% # Class of committed instruction
system.cpu0.commit.op_class_0::SimdFloatMultAcc            0      0.00%     57.17% # Class of committed instruction
system.cpu0.commit.op_class_0::SimdFloatSqrt            0      0.00%     57.17% # Class of committed instruction
system.cpu0.commit.op_class_0::SimdReduceAdd            0      0.00%     57.17% # Class of committed instruction
system.cpu0.commit.op_class_0::SimdReduceAlu            0      0.00%     57.17% # Class of committed instruction
system.cpu0.commit.op_class_0::SimdReduceCmp            0      0.00%     57.17% # Class of committed instruction
system.cpu0.commit.op_class_0::SimdFloatReduceAdd            0      0.00%     57.17% # Class of committed instruction
system.cpu0.commit.op_class_0::SimdFloatReduceCmp            0      0.00%     57.17% # Class of committed instruction
system.cpu0.commit.op_class_0::SimdAes              0      0.00%     57.17% # Class of committed instruction
system.cpu0.commit.op_class_0::SimdAesMix            0      0.00%     57.17% # Class of committed instruction
system.cpu0.commit.op_class_0::SimdSha1Hash            0      0.00%     57.17% # Class of committed instruction
system.cpu0.commit.op_class_0::SimdSha1Hash2            0      0.00%     57.17% # Class of committed instruction
system.cpu0.commit.op_class_0::SimdSha256Hash            0      0.00%     57.17% # Class of committed instruction
system.cpu0.commit.op_class_0::SimdSha256Hash2            0      0.00%     57.17% # Class of committed instruction
system.cpu0.commit.op_class_0::SimdShaSigma2            0      0.00%     57.17% # Class of committed instruction
system.cpu0.commit.op_class_0::SimdShaSigma3            0      0.00%     57.17% # Class of committed instruction
system.cpu0.commit.op_class_0::SimdPredAlu            0      0.00%     57.17% # Class of committed instruction
system.cpu0.commit.op_class_0::MemRead      389747735     31.14%     88.31% # Class of committed instruction
system.cpu0.commit.op_class_0::MemWrite     146255107     11.69%    100.00% # Class of committed instruction
system.cpu0.commit.op_class_0::FloatMemRead            8      0.00%    100.00% # Class of committed instruction
system.cpu0.commit.op_class_0::FloatMemWrite           20      0.00%    100.00% # Class of committed instruction
system.cpu0.commit.op_class_0::IprAccess            0      0.00%    100.00% # Class of committed instruction
system.cpu0.commit.op_class_0::InstPrefetch            0      0.00%    100.00% # Class of committed instruction
system.cpu0.commit.op_class_0::total       1251560481                       # Class of committed instruction
system.cpu0.commit.refs                     536002870                       # Number of memory references committed
system.cpu0.commit.swp_count                        0                       # Number of s/w prefetches committed
system.cpu0.commit.vec_insts                        0                       # Number of committed Vector instructions.
system.cpu0.committedInsts                 1250506715                       # Number of Instructions Simulated
system.cpu0.committedOps                   1251560481                       # Number of Ops (including micro ops) Simulated
system.cpu0.cpi                              1.860857                       # CPI: Cycles Per Instruction
system.cpu0.cpi_total                        1.860857                       # CPI: Total CPI of All Threads
system.cpu0.decode.BlockedCycles            274690541                       # Number of cycles decode is blocked
system.cpu0.decode.BranchMispred              5773908                       # Number of times decode detected a branch misprediction
system.cpu0.decode.BranchResolved           167068401                       # Number of times decode resolved a branch
system.cpu0.decode.DecodedInsts            1318668328                       # Number of instructions handled by decode
system.cpu0.decode.IdleCycles               972688257                       # Number of cycles decode is idle
system.cpu0.decode.RunCycles                923572058                       # Number of cycles decode is running
system.cpu0.decode.SquashCycles               9079011                       # Number of cycles decode is squashing
system.cpu0.decode.SquashedInsts             12861583                       # Number of squashed instructions handled by decode
system.cpu0.decode.UnblockCycles              3650260                       # Number of cycles decode is unblocking
system.cpu0.dtb.accesses                            0                       # DTB accesses
system.cpu0.dtb.hits                                0                       # DTB hits
system.cpu0.dtb.misses                              0                       # DTB misses
system.cpu0.dtb.read_accesses                       0                       # DTB read accesses
system.cpu0.dtb.read_hits                           0                       # DTB read hits
system.cpu0.dtb.read_misses                         0                       # DTB read misses
system.cpu0.dtb.write_accesses                      0                       # DTB write accesses
system.cpu0.dtb.write_hits                          0                       # DTB write hits
system.cpu0.dtb.write_misses                        0                       # DTB write misses
system.cpu0.fetch.Branches                  327261014                       # Number of branches that fetch encountered
system.cpu0.fetch.CacheLines                242520005                       # Number of cache lines fetched
system.cpu0.fetch.Cycles                   1222463878                       # Number of cycles fetch has run and was not squashing or blocked
system.cpu0.fetch.IcacheSquashes              4817624                       # Number of outstanding Icache misses that were squashed
system.cpu0.fetch.IcacheWaitRetryStallCycles           90                       # Number of stall cycles due to full MSHR
system.cpu0.fetch.Insts                    1339476560                       # Number of instructions fetch has processed
system.cpu0.fetch.MiscStallCycles                  75                       # Number of cycles fetch has spent waiting on interrupts, or bad addresses, or out of MSHRs
system.cpu0.fetch.PendingTrapStallCycles          377                       # Number of stall cycles due to pending traps
system.cpu0.fetch.SquashCycles               29654542                       # Number of cycles fetch has spent squashing
system.cpu0.fetch.branchRate                 0.140636                       # Number of branch fetches per cycle
system.cpu0.fetch.icacheStallCycles         946388436                       # Number of cycles fetch is stalled on an Icache miss
system.cpu0.fetch.predictedBranches         188189285                       # Number of branches that fetch has predicted taken
system.cpu0.fetch.rate                       0.575620                       # Number of inst fetches per cycle
system.cpu0.fetch.rateDist::samples        2183680127                       # Number of instructions fetched each cycle (Total)
system.cpu0.fetch.rateDist::mean             0.613886                       # Number of instructions fetched each cycle (Total)
system.cpu0.fetch.rateDist::stdev            0.887774                       # Number of instructions fetched each cycle (Total)
system.cpu0.fetch.rateDist::underflows              0      0.00%      0.00% # Number of instructions fetched each cycle (Total)
system.cpu0.fetch.rateDist::0              1231528669     56.40%     56.40% # Number of instructions fetched each cycle (Total)
system.cpu0.fetch.rateDist::1               714322966     32.71%     89.11% # Number of instructions fetched each cycle (Total)
system.cpu0.fetch.rateDist::2               121908178      5.58%     94.69% # Number of instructions fetched each cycle (Total)
system.cpu0.fetch.rateDist::3                96762275      4.43%     99.12% # Number of instructions fetched each cycle (Total)
system.cpu0.fetch.rateDist::4                12162619      0.56%     99.68% # Number of instructions fetched each cycle (Total)
system.cpu0.fetch.rateDist::5                 2730885      0.13%     99.80% # Number of instructions fetched each cycle (Total)
system.cpu0.fetch.rateDist::6                   56203      0.00%     99.81% # Number of instructions fetched each cycle (Total)
system.cpu0.fetch.rateDist::7                 4204087      0.19%    100.00% # Number of instructions fetched each cycle (Total)
system.cpu0.fetch.rateDist::8                    4245      0.00%    100.00% # Number of instructions fetched each cycle (Total)
system.cpu0.fetch.rateDist::overflows               0      0.00%    100.00% # Number of instructions fetched each cycle (Total)
system.cpu0.fetch.rateDist::min_value               0                       # Number of instructions fetched each cycle (Total)
system.cpu0.fetch.rateDist::max_value               8                       # Number of instructions fetched each cycle (Total)
system.cpu0.fetch.rateDist::total          2183680127                       # Number of instructions fetched each cycle (Total)
system.cpu0.fp_regfile_reads                       44                       # number of floating regfile reads
system.cpu0.fp_regfile_writes                      23                       # number of floating regfile writes
system.cpu0.idleCycles                      143334477                       # Total number of cycles that the CPU has spent unscheduled due to idling
system.cpu0.iew.branchMispredicts             9130785                       # Number of branch mispredicts detected at execute
system.cpu0.iew.exec_branches               318949828                       # Number of branches executed
system.cpu0.iew.exec_nop                            0                       # number of nop insts executed
system.cpu0.iew.exec_rate                    0.551619                       # Inst execution rate
system.cpu0.iew.exec_refs                   555254524                       # number of memory reference insts executed
system.cpu0.iew.exec_stores                 149151811                       # Number of stores executed
system.cpu0.iew.exec_swp                            0                       # number of swp insts executed
system.cpu0.iew.iewBlockCycles              220332131                       # Number of cycles IEW is blocking
system.cpu0.iew.iewDispLoadInsts            408640161                       # Number of dispatched load instructions
system.cpu0.iew.iewDispNonSpecInsts           1056853                       # Number of dispatched non-speculative instructions
system.cpu0.iew.iewDispSquashedInsts          5103440                       # Number of squashed instructions skipped by dispatch
system.cpu0.iew.iewDispStoreInsts           149821682                       # Number of dispatched store instructions
system.cpu0.iew.iewDispatchedInsts         1295835615                       # Number of instructions dispatched to IQ
system.cpu0.iew.iewExecLoadInsts            406102713                       # Number of load instructions executed
system.cpu0.iew.iewExecSquashedInsts          7239918                       # Number of squashed instructions skipped in execute
system.cpu0.iew.iewExecutedInsts           1283626418                       # Number of executed instructions
system.cpu0.iew.iewIQFullEvents               1014547                       # Number of times the IQ has become full, causing a stall
system.cpu0.iew.iewIdleCycles                       0                       # Number of cycles IEW is idle
system.cpu0.iew.iewLSQFullEvents              6132351                       # Number of times the LSQ has become full, causing a stall
system.cpu0.iew.iewSquashCycles               9079011                       # Number of cycles IEW is squashing
system.cpu0.iew.iewUnblockCycles              8375634                       # Number of cycles IEW is unblocking
system.cpu0.iew.lsq.thread0.blockedLoads            0                       # Number of blocked loads due to partial load-store forwarding
system.cpu0.iew.lsq.thread0.cacheBlocked       161591                       # Number of times an access to memory failed due to the cache being blocked
system.cpu0.iew.lsq.thread0.forwLoads        19823233                       # Number of loads that had data forwarded from stores
system.cpu0.iew.lsq.thread0.ignoredResponses        17484                       # Number of memory responses ignored because the instruction is squashed
system.cpu0.iew.lsq.thread0.invAddrLoads            0                       # Number of loads ignored due to an invalid address
system.cpu0.iew.lsq.thread0.invAddrSwpfs            0                       # Number of software prefetches ignored due to an invalid address
system.cpu0.iew.lsq.thread0.memOrderViolation        11055                       # Number of memory ordering violations
system.cpu0.iew.lsq.thread0.rescheduledLoads      4526167                       # Number of loads that were rescheduled
system.cpu0.iew.lsq.thread0.squashedLoads     19942897                       # Number of loads squashed
system.cpu0.iew.lsq.thread0.squashedStores      2516076                       # Number of stores squashed
system.cpu0.iew.memOrderViolationEvents         11055                       # Number of memory order violations
system.cpu0.iew.predictedNotTakenIncorrect       410949                       # Number of branches that were predicted not taken incorrectly
system.cpu0.iew.predictedTakenIncorrect       8719836                       # Number of branches that were predicted taken incorrectly
system.cpu0.iew.wb_consumers                536207462                       # num instructions consuming a value
system.cpu0.iew.wb_count                   1275041279                       # cumulative count of insts written-back
system.cpu0.iew.wb_fanout                    0.899020                       # average fanout of values written-back
system.cpu0.iew.wb_producers                482061160                       # num instructions producing a value
system.cpu0.iew.wb_rate                      0.547930                       # insts written-back per cycle
system.cpu0.iew.wb_sent                    1275104790                       # cumulative count of insts sent to commit
system.cpu0.int_regfile_reads              1574215962                       # number of integer regfile reads
system.cpu0.int_regfile_writes              817118891                       # number of integer regfile writes
system.cpu0.ipc                              0.537387                       # IPC: Instructions Per Cycle
system.cpu0.ipc_total                        0.537387                       # IPC: Total IPC of All Threads
system.cpu0.iq.FU_type_0::No_OpClass          2106215      0.16%      0.16% # Type of FU issued
system.cpu0.iq.FU_type_0::IntAlu            715146366     55.40%     55.56% # Type of FU issued
system.cpu0.iq.FU_type_0::IntMult            11833410      0.92%     56.48% # Type of FU issued
system.cpu0.iq.FU_type_0::IntDiv              2100413      0.16%     56.64% # Type of FU issued
system.cpu0.iq.FU_type_0::FloatAdd                  0      0.00%     56.64% # Type of FU issued
system.cpu0.iq.FU_type_0::FloatCmp                  4      0.00%     56.64% # Type of FU issued
system.cpu0.iq.FU_type_0::FloatCvt                 12      0.00%     56.64% # Type of FU issued
system.cpu0.iq.FU_type_0::FloatMult                 0      0.00%     56.64% # Type of FU issued
system.cpu0.iq.FU_type_0::FloatMultAcc              0      0.00%     56.64% # Type of FU issued
system.cpu0.iq.FU_type_0::FloatDiv                  2      0.00%     56.64% # Type of FU issued
system.cpu0.iq.FU_type_0::FloatMisc                 4      0.00%     56.64% # Type of FU issued
system.cpu0.iq.FU_type_0::FloatSqrt                 0      0.00%     56.64% # Type of FU issued
system.cpu0.iq.FU_type_0::SimdAdd                   0      0.00%     56.64% # Type of FU issued
system.cpu0.iq.FU_type_0::SimdAddAcc                0      0.00%     56.64% # Type of FU issued
system.cpu0.iq.FU_type_0::SimdAlu                   0      0.00%     56.64% # Type of FU issued
system.cpu0.iq.FU_type_0::SimdCmp                   0      0.00%     56.64% # Type of FU issued
system.cpu0.iq.FU_type_0::SimdCvt                   0      0.00%     56.64% # Type of FU issued
system.cpu0.iq.FU_type_0::SimdMisc                  0      0.00%     56.64% # Type of FU issued
system.cpu0.iq.FU_type_0::SimdMult                  0      0.00%     56.64% # Type of FU issued
system.cpu0.iq.FU_type_0::SimdMultAcc               0      0.00%     56.64% # Type of FU issued
system.cpu0.iq.FU_type_0::SimdShift                 0      0.00%     56.64% # Type of FU issued
system.cpu0.iq.FU_type_0::SimdShiftAcc              0      0.00%     56.64% # Type of FU issued
system.cpu0.iq.FU_type_0::SimdDiv                   0      0.00%     56.64% # Type of FU issued
system.cpu0.iq.FU_type_0::SimdSqrt                  0      0.00%     56.64% # Type of FU issued
system.cpu0.iq.FU_type_0::SimdFloatAdd              0      0.00%     56.64% # Type of FU issued
system.cpu0.iq.FU_type_0::SimdFloatAlu              0      0.00%     56.64% # Type of FU issued
system.cpu0.iq.FU_type_0::SimdFloatCmp              0      0.00%     56.64% # Type of FU issued
system.cpu0.iq.FU_type_0::SimdFloatCvt              0      0.00%     56.64% # Type of FU issued
system.cpu0.iq.FU_type_0::SimdFloatDiv              0      0.00%     56.64% # Type of FU issued
system.cpu0.iq.FU_type_0::SimdFloatMisc             0      0.00%     56.64% # Type of FU issued
system.cpu0.iq.FU_type_0::SimdFloatMult             0      0.00%     56.64% # Type of FU issued
system.cpu0.iq.FU_type_0::SimdFloatMultAcc            0      0.00%     56.64% # Type of FU issued
system.cpu0.iq.FU_type_0::SimdFloatSqrt             0      0.00%     56.64% # Type of FU issued
system.cpu0.iq.FU_type_0::SimdReduceAdd             0      0.00%     56.64% # Type of FU issued
system.cpu0.iq.FU_type_0::SimdReduceAlu             0      0.00%     56.64% # Type of FU issued
system.cpu0.iq.FU_type_0::SimdReduceCmp             0      0.00%     56.64% # Type of FU issued
system.cpu0.iq.FU_type_0::SimdFloatReduceAdd            0      0.00%     56.64% # Type of FU issued
system.cpu0.iq.FU_type_0::SimdFloatReduceCmp            0      0.00%     56.64% # Type of FU issued
system.cpu0.iq.FU_type_0::SimdAes                   0      0.00%     56.64% # Type of FU issued
system.cpu0.iq.FU_type_0::SimdAesMix                0      0.00%     56.64% # Type of FU issued
system.cpu0.iq.FU_type_0::SimdSha1Hash              0      0.00%     56.64% # Type of FU issued
system.cpu0.iq.FU_type_0::SimdSha1Hash2             0      0.00%     56.64% # Type of FU issued
system.cpu0.iq.FU_type_0::SimdSha256Hash            0      0.00%     56.64% # Type of FU issued
system.cpu0.iq.FU_type_0::SimdSha256Hash2            0      0.00%     56.64% # Type of FU issued
system.cpu0.iq.FU_type_0::SimdShaSigma2             0      0.00%     56.64% # Type of FU issued
system.cpu0.iq.FU_type_0::SimdShaSigma3             0      0.00%     56.64% # Type of FU issued
system.cpu0.iq.FU_type_0::SimdPredAlu               0      0.00%     56.64% # Type of FU issued
system.cpu0.iq.FU_type_0::MemRead           411200749     31.85%     88.50% # Type of FU issued
system.cpu0.iq.FU_type_0::MemWrite          148479133     11.50%    100.00% # Type of FU issued
system.cpu0.iq.FU_type_0::FloatMemRead              9      0.00%    100.00% # Type of FU issued
system.cpu0.iq.FU_type_0::FloatMemWrite            20      0.00%    100.00% # Type of FU issued
system.cpu0.iq.FU_type_0::IprAccess                 0      0.00%    100.00% # Type of FU issued
system.cpu0.iq.FU_type_0::InstPrefetch              0      0.00%    100.00% # Type of FU issued
system.cpu0.iq.FU_type_0::total            1290866337                       # Type of FU issued
system.cpu0.iq.fp_alu_accesses                     53                       # Number of floating point alu accesses
system.cpu0.iq.fp_inst_queue_reads                104                       # Number of floating instruction queue reads
system.cpu0.iq.fp_inst_queue_wakeup_accesses           51                       # Number of floating instruction queue wakeup accesses
system.cpu0.iq.fp_inst_queue_writes                54                       # Number of floating instruction queue writes
system.cpu0.iq.fu_busy_cnt                    1722577                       # FU busy when requested
system.cpu0.iq.fu_busy_rate                  0.001334                       # FU busy rate (busy events/executed inst)
system.cpu0.iq.fu_full::No_OpClass                  0      0.00%      0.00% # attempts to use FU when none available
system.cpu0.iq.fu_full::IntAlu                 294259     17.08%     17.08% # attempts to use FU when none available
system.cpu0.iq.fu_full::IntMult                     0      0.00%     17.08% # attempts to use FU when none available
system.cpu0.iq.fu_full::IntDiv                      0      0.00%     17.08% # attempts to use FU when none available
system.cpu0.iq.fu_full::FloatAdd                    0      0.00%     17.08% # attempts to use FU when none available
system.cpu0.iq.fu_full::FloatCmp                    0      0.00%     17.08% # attempts to use FU when none available
system.cpu0.iq.fu_full::FloatCvt                    0      0.00%     17.08% # attempts to use FU when none available
system.cpu0.iq.fu_full::FloatMult                   0      0.00%     17.08% # attempts to use FU when none available
system.cpu0.iq.fu_full::FloatMultAcc                0      0.00%     17.08% # attempts to use FU when none available
system.cpu0.iq.fu_full::FloatDiv                    0      0.00%     17.08% # attempts to use FU when none available
system.cpu0.iq.fu_full::FloatMisc                   0      0.00%     17.08% # attempts to use FU when none available
system.cpu0.iq.fu_full::FloatSqrt                   0      0.00%     17.08% # attempts to use FU when none available
system.cpu0.iq.fu_full::SimdAdd                     0      0.00%     17.08% # attempts to use FU when none available
system.cpu0.iq.fu_full::SimdAddAcc                  0      0.00%     17.08% # attempts to use FU when none available
system.cpu0.iq.fu_full::SimdAlu                     0      0.00%     17.08% # attempts to use FU when none available
system.cpu0.iq.fu_full::SimdCmp                     0      0.00%     17.08% # attempts to use FU when none available
system.cpu0.iq.fu_full::SimdCvt                     0      0.00%     17.08% # attempts to use FU when none available
system.cpu0.iq.fu_full::SimdMisc                    0      0.00%     17.08% # attempts to use FU when none available
system.cpu0.iq.fu_full::SimdMult                    0      0.00%     17.08% # attempts to use FU when none available
system.cpu0.iq.fu_full::SimdMultAcc                 0      0.00%     17.08% # attempts to use FU when none available
system.cpu0.iq.fu_full::SimdShift                   0      0.00%     17.08% # attempts to use FU when none available
system.cpu0.iq.fu_full::SimdShiftAcc                0      0.00%     17.08% # attempts to use FU when none available
system.cpu0.iq.fu_full::SimdDiv                     0      0.00%     17.08% # attempts to use FU when none available
system.cpu0.iq.fu_full::SimdSqrt                    0      0.00%     17.08% # attempts to use FU when none available
system.cpu0.iq.fu_full::SimdFloatAdd                0      0.00%     17.08% # attempts to use FU when none available
system.cpu0.iq.fu_full::SimdFloatAlu                0      0.00%     17.08% # attempts to use FU when none available
system.cpu0.iq.fu_full::SimdFloatCmp                0      0.00%     17.08% # attempts to use FU when none available
system.cpu0.iq.fu_full::SimdFloatCvt                0      0.00%     17.08% # attempts to use FU when none available
system.cpu0.iq.fu_full::SimdFloatDiv                0      0.00%     17.08% # attempts to use FU when none available
system.cpu0.iq.fu_full::SimdFloatMisc               0      0.00%     17.08% # attempts to use FU when none available
system.cpu0.iq.fu_full::SimdFloatMult               0      0.00%     17.08% # attempts to use FU when none available
system.cpu0.iq.fu_full::SimdFloatMultAcc            0      0.00%     17.08% # attempts to use FU when none available
system.cpu0.iq.fu_full::SimdFloatSqrt               0      0.00%     17.08% # attempts to use FU when none available
system.cpu0.iq.fu_full::SimdReduceAdd               0      0.00%     17.08% # attempts to use FU when none available
system.cpu0.iq.fu_full::SimdReduceAlu               0      0.00%     17.08% # attempts to use FU when none available
system.cpu0.iq.fu_full::SimdReduceCmp               0      0.00%     17.08% # attempts to use FU when none available
system.cpu0.iq.fu_full::SimdFloatReduceAdd            0      0.00%     17.08% # attempts to use FU when none available
system.cpu0.iq.fu_full::SimdFloatReduceCmp            0      0.00%     17.08% # attempts to use FU when none available
system.cpu0.iq.fu_full::SimdAes                     0      0.00%     17.08% # attempts to use FU when none available
system.cpu0.iq.fu_full::SimdAesMix                  0      0.00%     17.08% # attempts to use FU when none available
system.cpu0.iq.fu_full::SimdSha1Hash                0      0.00%     17.08% # attempts to use FU when none available
system.cpu0.iq.fu_full::SimdSha1Hash2               0      0.00%     17.08% # attempts to use FU when none available
system.cpu0.iq.fu_full::SimdSha256Hash              0      0.00%     17.08% # attempts to use FU when none available
system.cpu0.iq.fu_full::SimdSha256Hash2             0      0.00%     17.08% # attempts to use FU when none available
system.cpu0.iq.fu_full::SimdShaSigma2               0      0.00%     17.08% # attempts to use FU when none available
system.cpu0.iq.fu_full::SimdShaSigma3               0      0.00%     17.08% # attempts to use FU when none available
system.cpu0.iq.fu_full::SimdPredAlu                 0      0.00%     17.08% # attempts to use FU when none available
system.cpu0.iq.fu_full::MemRead               1182820     68.67%     85.75% # attempts to use FU when none available
system.cpu0.iq.fu_full::MemWrite               245496     14.25%    100.00% # attempts to use FU when none available
system.cpu0.iq.fu_full::FloatMemRead                0      0.00%    100.00% # attempts to use FU when none available
system.cpu0.iq.fu_full::FloatMemWrite               2      0.00%    100.00% # attempts to use FU when none available
system.cpu0.iq.fu_full::IprAccess                   0      0.00%    100.00% # attempts to use FU when none available
system.cpu0.iq.fu_full::InstPrefetch                0      0.00%    100.00% # attempts to use FU when none available
system.cpu0.iq.int_alu_accesses            1290482646                       # Number of integer alu accesses
system.cpu0.iq.int_inst_queue_reads        4767254861                       # Number of integer instruction queue reads
system.cpu0.iq.int_inst_queue_wakeup_accesses   1275041228                       # Number of integer instruction queue wakeup accesses
system.cpu0.iq.int_inst_queue_writes       1340121465                       # Number of integer instruction queue writes
system.cpu0.iq.iqInstsAdded                1292674449                       # Number of instructions added to the IQ (excludes non-spec)
system.cpu0.iq.iqInstsIssued               1290866337                       # Number of instructions issued
system.cpu0.iq.iqNonSpecInstsAdded            3161166                       # Number of non-speculative instructions added to the IQ
system.cpu0.iq.iqSquashedInstsExamined       44275130                       # Number of squashed instructions iterated over during squash; mainly for profiling
system.cpu0.iq.iqSquashedInstsIssued           119588                       # Number of squashed instructions issued
system.cpu0.iq.iqSquashedNonSpecRemoved           484                       # Number of squashed non-spec instructions that were removed
system.cpu0.iq.iqSquashedOperandsExamined     22222546                       # Number of squashed operands that are examined and possibly removed from graph
system.cpu0.iq.issued_per_cycle::samples   2183680127                       # Number of insts issued each cycle
system.cpu0.iq.issued_per_cycle::mean        0.591143                       # Number of insts issued each cycle
system.cpu0.iq.issued_per_cycle::stdev       0.797666                       # Number of insts issued each cycle
system.cpu0.iq.issued_per_cycle::underflows            0      0.00%      0.00% # Number of insts issued each cycle
system.cpu0.iq.issued_per_cycle::0         1230817201     56.36%     56.36% # Number of insts issued each cycle
system.cpu0.iq.issued_per_cycle::1          684423668     31.34%     87.71% # Number of insts issued each cycle
system.cpu0.iq.issued_per_cycle::2          214271814      9.81%     97.52% # Number of insts issued each cycle
system.cpu0.iq.issued_per_cycle::3           43562145      1.99%     99.51% # Number of insts issued each cycle
system.cpu0.iq.issued_per_cycle::4            8010324      0.37%     99.88% # Number of insts issued each cycle
system.cpu0.iq.issued_per_cycle::5            1112592      0.05%     99.93% # Number of insts issued each cycle
system.cpu0.iq.issued_per_cycle::6             918825      0.04%     99.97% # Number of insts issued each cycle
system.cpu0.iq.issued_per_cycle::7             413064      0.02%     99.99% # Number of insts issued each cycle
system.cpu0.iq.issued_per_cycle::8             150494      0.01%    100.00% # Number of insts issued each cycle
system.cpu0.iq.issued_per_cycle::overflows            0      0.00%    100.00% # Number of insts issued each cycle
system.cpu0.iq.issued_per_cycle::min_value            0                       # Number of insts issued each cycle
system.cpu0.iq.issued_per_cycle::max_value            8                       # Number of insts issued each cycle
system.cpu0.iq.issued_per_cycle::total     2183680127                       # Number of insts issued each cycle
system.cpu0.iq.rate                          0.554731                       # Inst issue rate
system.cpu0.iq.vec_alu_accesses                     0                       # Number of vector alu accesses
system.cpu0.iq.vec_inst_queue_reads                 0                       # Number of vector instruction queue reads
system.cpu0.iq.vec_inst_queue_wakeup_accesses            0                       # Number of vector instruction queue wakeup accesses
system.cpu0.iq.vec_inst_queue_writes                0                       # Number of vector instruction queue writes
system.cpu0.itb.accesses                            0                       # DTB accesses
system.cpu0.itb.hits                                0                       # DTB hits
system.cpu0.itb.misses                              0                       # DTB misses
system.cpu0.itb.read_accesses                       0                       # DTB read accesses
system.cpu0.itb.read_hits                           0                       # DTB read hits
system.cpu0.itb.read_misses                         0                       # DTB read misses
system.cpu0.itb.write_accesses                      0                       # DTB write accesses
system.cpu0.itb.write_hits                          0                       # DTB write hits
system.cpu0.itb.write_misses                        0                       # DTB write misses
system.cpu0.memDep0.conflictingLoads         13228526                       # Number of conflicting loads.
system.cpu0.memDep0.conflictingStores         1303197                       # Number of conflicting stores.
system.cpu0.memDep0.insertedLoads           408640161                       # Number of loads inserted to the mem dependence unit.
system.cpu0.memDep0.insertedStores          149821682                       # Number of stores inserted to the mem dependence unit.
system.cpu0.misc_regfile_reads                   2081                       # number of misc regfile reads
system.cpu0.misc_regfile_writes                    22                       # number of misc regfile writes
system.cpu0.numCycles                      2327014604                       # number of cpu cycles simulated
system.cpu0.numWorkItemsCompleted                   0                       # number of work items this cpu completed
system.cpu0.numWorkItemsStarted                     0                       # number of work items this cpu started
system.cpu0.quiesceCycles                     8157675                       # Total number of cycles that CPU has spent quiesced or waiting for an interrupt
system.cpu0.rename.BlockCycles              237647602                       # Number of cycles rename is blocking
system.cpu0.rename.CommittedMaps            800534681                       # Number of HB maps that are committed
system.cpu0.rename.IQFullEvents               8035161                       # Number of times rename has blocked due to IQ full
system.cpu0.rename.IdleCycles               985584945                       # Number of cycles rename is idle
system.cpu0.rename.LQFullEvents              10904667                       # Number of times rename has blocked due to LQ full
system.cpu0.rename.ROBFullEvents                10136                       # Number of times rename has blocked due to ROB full
system.cpu0.rename.RenameLookups           1602654995                       # Number of register rename lookups that rename has made
system.cpu0.rename.RenamedInsts            1308526149                       # Number of instructions processed by rename
system.cpu0.rename.RenamedOperands          845801021                       # Number of destination operands rename has renamed
system.cpu0.rename.RunCycles                913642381                       # Number of cycles rename is running
system.cpu0.rename.SQFullEvents              18687536                       # Number of times rename has blocked due to SQ full
system.cpu0.rename.SquashCycles               9079011                       # Number of cycles rename is squashing
system.cpu0.rename.UnblockCycles             37558898                       # Number of cycles rename is unblocking
system.cpu0.rename.UndoneMaps                45266335                       # Number of HB maps that are undone due to squashing
system.cpu0.rename.fp_rename_lookups               47                       # Number of floating rename lookups
system.cpu0.rename.int_rename_lookups      1602654948                       # Number of integer rename lookups
system.cpu0.rename.serializeStallCycles        167290                       # count of cycles rename stalled for serializing inst
system.cpu0.rename.serializingInsts              6306                       # count of serializing insts renamed
system.cpu0.rename.skidInsts                 16793145                       # count of insts added to the skid buffer
system.cpu0.rename.tempSerializingInsts          6257                       # count of temporary serializing insts renamed
system.cpu0.rob.rob_reads                  3437198367                       # The number of ROB reads
system.cpu0.rob.rob_writes                 2603356979                       # The number of ROB writes
system.cpu0.timesIdled                       31169079                       # Number of times that the entire CPU went into an idle state and unscheduled itself
system.cpu0.workload.numSyscalls                 2048                       # Number of system calls
system.cpu1.branchPred.BTBCorrect                   0                       # Number of correct BTB predictions (this stat may not work properly.
system.cpu1.branchPred.BTBHitPct            83.679999                       # BTB Hit Percentage
system.cpu1.branchPred.BTBHits               14929147                       # Number of BTB hits
system.cpu1.branchPred.BTBLookups            17840759                       # Number of BTB lookups
system.cpu1.branchPred.RASInCorrect                 0                       # Number of incorrect RAS predictions.
system.cpu1.branchPred.condIncorrect          3565036                       # Number of conditional branches incorrect
system.cpu1.branchPred.condPredicted         23994000                       # Number of conditional branches predicted
system.cpu1.branchPred.indirectHits            661733                       # Number of indirect target hits.
system.cpu1.branchPred.indirectLookups         751563                       # Number of indirect predictor lookups.
system.cpu1.branchPred.indirectMisses           89830                       # Number of indirect misses.
system.cpu1.branchPred.lookups               27389077                       # Number of BP lookups
system.cpu1.branchPred.usedRAS                      0                       # Number of times the RAS was used to get a target.
system.cpu1.branchPredindirectMispredicted        41875                       # Number of mispredicted indirect branches.
system.cpu1.commit.amos                       1050213                       # Number of atomic instructions committed
system.cpu1.commit.branchMispredicts          2230417                       # The number of times a branch was mispredicted
system.cpu1.commit.branches                  16230551                       # Number of branches committed
system.cpu1.commit.bw_lim_events              2299745                       # number cycles where commit BW limit reached
system.cpu1.commit.commitNonSpecStalls        3151362                       # The number of times commit has been forced to stall to communicate backwards
system.cpu1.commit.commitSquashedInsts       31912550                       # The number of squashed insts skipped by commit
system.cpu1.commit.committedInsts            67688682                       # Number of instructions committed
system.cpu1.commit.committedOps              68739099                       # Number of ops (including micro ops) committed
system.cpu1.commit.committed_per_cycle::samples    304057580                       # Number of insts commited each cycle
system.cpu1.commit.committed_per_cycle::mean     0.226073                       # Number of insts commited each cycle
system.cpu1.commit.committed_per_cycle::stdev     0.952414                       # Number of insts commited each cycle
system.cpu1.commit.committed_per_cycle::underflows            0      0.00%      0.00% # Number of insts commited each cycle
system.cpu1.commit.committed_per_cycle::0    275674859     90.67%     90.67% # Number of insts commited each cycle
system.cpu1.commit.committed_per_cycle::1     14104804      4.64%     95.30% # Number of insts commited each cycle
system.cpu1.commit.committed_per_cycle::2      5342132      1.76%     97.06% # Number of insts commited each cycle
system.cpu1.commit.committed_per_cycle::3      4079837      1.34%     98.40% # Number of insts commited each cycle
system.cpu1.commit.committed_per_cycle::4       892800      0.29%     98.70% # Number of insts commited each cycle
system.cpu1.commit.committed_per_cycle::5       456756      0.15%     98.85% # Number of insts commited each cycle
system.cpu1.commit.committed_per_cycle::6       988949      0.33%     99.17% # Number of insts commited each cycle
system.cpu1.commit.committed_per_cycle::7       217698      0.07%     99.24% # Number of insts commited each cycle
system.cpu1.commit.committed_per_cycle::8      2299745      0.76%    100.00% # Number of insts commited each cycle
system.cpu1.commit.committed_per_cycle::overflows            0      0.00%    100.00% # Number of insts commited each cycle
system.cpu1.commit.committed_per_cycle::min_value            0                       # Number of insts commited each cycle
system.cpu1.commit.committed_per_cycle::max_value            8                       # Number of insts commited each cycle
system.cpu1.commit.committed_per_cycle::total    304057580                       # Number of insts commited each cycle
system.cpu1.commit.fp_insts                        12                       # Number of committed floating point instructions.
system.cpu1.commit.function_calls             1075059                       # Number of function calls committed.
system.cpu1.commit.int_insts                 65723518                       # Number of committed integer instructions.
system.cpu1.commit.loads                     16753514                       # Number of loads committed
system.cpu1.commit.membars                    2100502                       # Number of memory barriers committed
system.cpu1.commit.op_class_0::No_OpClass      2100502      3.06%      3.06% # Class of committed instruction
system.cpu1.commit.op_class_0::IntAlu        43608088     63.44%     66.50% # Class of committed instruction
system.cpu1.commit.op_class_0::IntMult             44      0.00%     66.50% # Class of committed instruction
system.cpu1.commit.op_class_0::IntDiv              88      0.00%     66.50% # Class of committed instruction
system.cpu1.commit.op_class_0::FloatAdd             0      0.00%     66.50% # Class of committed instruction
system.cpu1.commit.op_class_0::FloatCmp             0      0.00%     66.50% # Class of committed instruction
system.cpu1.commit.op_class_0::FloatCvt             0      0.00%     66.50% # Class of committed instruction
system.cpu1.commit.op_class_0::FloatMult            0      0.00%     66.50% # Class of committed instruction
system.cpu1.commit.op_class_0::FloatMultAcc            0      0.00%     66.50% # Class of committed instruction
system.cpu1.commit.op_class_0::FloatDiv             0      0.00%     66.50% # Class of committed instruction
system.cpu1.commit.op_class_0::FloatMisc            0      0.00%     66.50% # Class of committed instruction
system.cpu1.commit.op_class_0::FloatSqrt            0      0.00%     66.50% # Class of committed instruction
system.cpu1.commit.op_class_0::SimdAdd              0      0.00%     66.50% # Class of committed instruction
system.cpu1.commit.op_class_0::SimdAddAcc            0      0.00%     66.50% # Class of committed instruction
system.cpu1.commit.op_class_0::SimdAlu              0      0.00%     66.50% # Class of committed instruction
system.cpu1.commit.op_class_0::SimdCmp              0      0.00%     66.50% # Class of committed instruction
system.cpu1.commit.op_class_0::SimdCvt              0      0.00%     66.50% # Class of committed instruction
system.cpu1.commit.op_class_0::SimdMisc             0      0.00%     66.50% # Class of committed instruction
system.cpu1.commit.op_class_0::SimdMult             0      0.00%     66.50% # Class of committed instruction
system.cpu1.commit.op_class_0::SimdMultAcc            0      0.00%     66.50% # Class of committed instruction
system.cpu1.commit.op_class_0::SimdShift            0      0.00%     66.50% # Class of committed instruction
system.cpu1.commit.op_class_0::SimdShiftAcc            0      0.00%     66.50% # Class of committed instruction
system.cpu1.commit.op_class_0::SimdDiv              0      0.00%     66.50% # Class of committed instruction
system.cpu1.commit.op_class_0::SimdSqrt             0      0.00%     66.50% # Class of committed instruction
system.cpu1.commit.op_class_0::SimdFloatAdd            0      0.00%     66.50% # Class of committed instruction
system.cpu1.commit.op_class_0::SimdFloatAlu            0      0.00%     66.50% # Class of committed instruction
system.cpu1.commit.op_class_0::SimdFloatCmp            0      0.00%     66.50% # Class of committed instruction
system.cpu1.commit.op_class_0::SimdFloatCvt            0      0.00%     66.50% # Class of committed instruction
system.cpu1.commit.op_class_0::SimdFloatDiv            0      0.00%     66.50% # Class of committed instruction
system.cpu1.commit.op_class_0::SimdFloatMisc            0      0.00%     66.50% # Class of committed instruction
system.cpu1.commit.op_class_0::SimdFloatMult            0      0.00%     66.50% # Class of committed instruction
system.cpu1.commit.op_class_0::SimdFloatMultAcc            0      0.00%     66.50% # Class of committed instruction
system.cpu1.commit.op_class_0::SimdFloatSqrt            0      0.00%     66.50% # Class of committed instruction
system.cpu1.commit.op_class_0::SimdReduceAdd            0      0.00%     66.50% # Class of committed instruction
system.cpu1.commit.op_class_0::SimdReduceAlu            0      0.00%     66.50% # Class of committed instruction
system.cpu1.commit.op_class_0::SimdReduceCmp            0      0.00%     66.50% # Class of committed instruction
system.cpu1.commit.op_class_0::SimdFloatReduceAdd            0      0.00%     66.50% # Class of committed instruction
system.cpu1.commit.op_class_0::SimdFloatReduceCmp            0      0.00%     66.50% # Class of committed instruction
system.cpu1.commit.op_class_0::SimdAes              0      0.00%     66.50% # Class of committed instruction
system.cpu1.commit.op_class_0::SimdAesMix            0      0.00%     66.50% # Class of committed instruction
system.cpu1.commit.op_class_0::SimdSha1Hash            0      0.00%     66.50% # Class of committed instruction
system.cpu1.commit.op_class_0::SimdSha1Hash2            0      0.00%     66.50% # Class of committed instruction
system.cpu1.commit.op_class_0::SimdSha256Hash            0      0.00%     66.50% # Class of committed instruction
system.cpu1.commit.op_class_0::SimdSha256Hash2            0      0.00%     66.50% # Class of committed instruction
system.cpu1.commit.op_class_0::SimdShaSigma2            0      0.00%     66.50% # Class of committed instruction
system.cpu1.commit.op_class_0::SimdShaSigma3            0      0.00%     66.50% # Class of committed instruction
system.cpu1.commit.op_class_0::SimdPredAlu            0      0.00%     66.50% # Class of committed instruction
system.cpu1.commit.op_class_0::MemRead       17803727     25.90%     92.40% # Class of committed instruction
system.cpu1.commit.op_class_0::MemWrite       5226638      7.60%    100.00% # Class of committed instruction
system.cpu1.commit.op_class_0::FloatMemRead            0      0.00%    100.00% # Class of committed instruction
system.cpu1.commit.op_class_0::FloatMemWrite           12      0.00%    100.00% # Class of committed instruction
system.cpu1.commit.op_class_0::IprAccess            0      0.00%    100.00% # Class of committed instruction
system.cpu1.commit.op_class_0::InstPrefetch            0      0.00%    100.00% # Class of committed instruction
system.cpu1.commit.op_class_0::total         68739099                       # Class of committed instruction
system.cpu1.commit.refs                      23030377                       # Number of memory references committed
system.cpu1.commit.swp_count                        0                       # Number of s/w prefetches committed
system.cpu1.commit.vec_insts                        0                       # Number of committed Vector instructions.
system.cpu1.committedInsts                   67688682                       # Number of Instructions Simulated
system.cpu1.committedOps                     68739099                       # Number of Ops (including micro ops) Simulated
system.cpu1.cpi                              4.584778                       # CPI: Cycles Per Instruction
system.cpu1.cpi_total                        4.584778                       # CPI: Total CPI of All Threads
system.cpu1.decode.BlockedCycles            226810293                       # Number of cycles decode is blocked
system.cpu1.decode.BranchMispred              1369190                       # Number of times decode detected a branch misprediction
system.cpu1.decode.BranchResolved            13722460                       # Number of times decode resolved a branch
system.cpu1.decode.DecodedInsts             109542742                       # Number of instructions handled by decode
system.cpu1.decode.IdleCycles                24514186                       # Number of cycles decode is idle
system.cpu1.decode.RunCycles                 53300485                       # Number of cycles decode is running
system.cpu1.decode.SquashCycles               2231813                       # Number of cycles decode is squashing
system.cpu1.decode.SquashedInsts              2448452                       # Number of squashed instructions handled by decode
system.cpu1.decode.UnblockCycles              2796425                       # Number of cycles decode is unblocking
system.cpu1.dtb.accesses                            0                       # DTB accesses
system.cpu1.dtb.hits                                0                       # DTB hits
system.cpu1.dtb.misses                              0                       # DTB misses
system.cpu1.dtb.read_accesses                       0                       # DTB read accesses
system.cpu1.dtb.read_hits                           0                       # DTB read hits
system.cpu1.dtb.read_misses                         0                       # DTB read misses
system.cpu1.dtb.write_accesses                      0                       # DTB write accesses
system.cpu1.dtb.write_hits                          0                       # DTB write hits
system.cpu1.dtb.write_misses                        0                       # DTB write misses
system.cpu1.fetch.Branches                   27389077                       # Number of branches that fetch encountered
system.cpu1.fetch.CacheLines                 20383412                       # Number of cache lines fetched
system.cpu1.fetch.Cycles                    283487221                       # Number of cycles fetch has run and was not squashing or blocked
system.cpu1.fetch.IcacheSquashes               885024                       # Number of outstanding Icache misses that were squashed
system.cpu1.fetch.IcacheWaitRetryStallCycles           24                       # Number of stall cycles due to full MSHR
system.cpu1.fetch.Insts                     124659588                       # Number of instructions fetch has processed
system.cpu1.fetch.MiscStallCycles                   3                       # Number of cycles fetch has spent waiting on interrupts, or bad addresses, or out of MSHRs
system.cpu1.fetch.SquashCycles                7132864                       # Number of cycles fetch has spent squashing
system.cpu1.fetch.branchRate                 0.088256                       # Number of branch fetches per cycle
system.cpu1.fetch.icacheStallCycles          22599522                       # Number of cycles fetch is stalled on an Icache miss
system.cpu1.fetch.predictedBranches          15590880                       # Number of branches that fetch has predicted taken
system.cpu1.fetch.rate                       0.401690                       # Number of inst fetches per cycle
system.cpu1.fetch.rateDist::samples         309653202                       # Number of instructions fetched each cycle (Total)
system.cpu1.fetch.rateDist::mean             0.413187                       # Number of instructions fetched each cycle (Total)
system.cpu1.fetch.rateDist::stdev            0.884312                       # Number of instructions fetched each cycle (Total)
system.cpu1.fetch.rateDist::underflows              0      0.00%      0.00% # Number of instructions fetched each cycle (Total)
system.cpu1.fetch.rateDist::0               232779181     75.17%     75.17% # Number of instructions fetched each cycle (Total)
system.cpu1.fetch.rateDist::1                46415831     14.99%     90.16% # Number of instructions fetched each cycle (Total)
system.cpu1.fetch.rateDist::2                17730779      5.73%     95.89% # Number of instructions fetched each cycle (Total)
system.cpu1.fetch.rateDist::3                 8337547      2.69%     98.58% # Number of instructions fetched each cycle (Total)
system.cpu1.fetch.rateDist::4                 1360588      0.44%     99.02% # Number of instructions fetched each cycle (Total)
system.cpu1.fetch.rateDist::5                 2568350      0.83%     99.85% # Number of instructions fetched each cycle (Total)
system.cpu1.fetch.rateDist::6                  457576      0.15%    100.00% # Number of instructions fetched each cycle (Total)
system.cpu1.fetch.rateDist::7                    1719      0.00%    100.00% # Number of instructions fetched each cycle (Total)
system.cpu1.fetch.rateDist::8                    1631      0.00%    100.00% # Number of instructions fetched each cycle (Total)
system.cpu1.fetch.rateDist::overflows               0      0.00%    100.00% # Number of instructions fetched each cycle (Total)
system.cpu1.fetch.rateDist::min_value               0                       # Number of instructions fetched each cycle (Total)
system.cpu1.fetch.rateDist::max_value               8                       # Number of instructions fetched each cycle (Total)
system.cpu1.fetch.rateDist::total           309653202                       # Number of instructions fetched each cycle (Total)
system.cpu1.fp_regfile_reads                       12                       # number of floating regfile reads
system.cpu1.idleCycles                         684355                       # Total number of cycles that the CPU has spent unscheduled due to idling
system.cpu1.iew.branchMispredicts             2300781                       # Number of branch mispredicts detected at execute
system.cpu1.iew.exec_branches                19970720                       # Number of branches executed
system.cpu1.iew.exec_nop                            0                       # number of nop insts executed
system.cpu1.iew.exec_rate                    0.258317                       # Inst execution rate
system.cpu1.iew.exec_refs                    25806160                       # number of memory reference insts executed
system.cpu1.iew.exec_stores                   6585643                       # Number of stores executed
system.cpu1.iew.exec_swp                            0                       # number of swp insts executed
system.cpu1.iew.iewBlockCycles              192839067                       # Number of cycles IEW is blocking
system.cpu1.iew.iewDispLoadInsts             26263829                       # Number of dispatched load instructions
system.cpu1.iew.iewDispNonSpecInsts           2288178                       # Number of dispatched non-speculative instructions
system.cpu1.iew.iewDispSquashedInsts          1401222                       # Number of squashed instructions skipped by dispatch
system.cpu1.iew.iewDispStoreInsts             9259408                       # Number of dispatched store instructions
system.cpu1.iew.iewDispatchedInsts          100625358                       # Number of instructions dispatched to IQ
system.cpu1.iew.iewExecLoadInsts             19220517                       # Number of load instructions executed
system.cpu1.iew.iewExecSquashedInsts          1350916                       # Number of squashed instructions skipped in execute
system.cpu1.iew.iewExecutedInsts             80165556                       # Number of executed instructions
system.cpu1.iew.iewIQFullEvents               1087005                       # Number of times the IQ has become full, causing a stall
system.cpu1.iew.iewIdleCycles                       0                       # Number of cycles IEW is idle
system.cpu1.iew.iewLSQFullEvents              4674146                       # Number of times the LSQ has become full, causing a stall
system.cpu1.iew.iewSquashCycles               2231813                       # Number of cycles IEW is squashing
system.cpu1.iew.iewUnblockCycles              6808459                       # Number of cycles IEW is unblocking
system.cpu1.iew.lsq.thread0.blockedLoads            0                       # Number of blocked loads due to partial load-store forwarding
system.cpu1.iew.lsq.thread0.cacheBlocked        73526                       # Number of times an access to memory failed due to the cache being blocked
system.cpu1.iew.lsq.thread0.forwLoads          695006                       # Number of loads that had data forwarded from stores
system.cpu1.iew.lsq.thread0.ignoredResponses        16968                       # Number of memory responses ignored because the instruction is squashed
system.cpu1.iew.lsq.thread0.invAddrLoads            0                       # Number of loads ignored due to an invalid address
system.cpu1.iew.lsq.thread0.invAddrSwpfs            0                       # Number of software prefetches ignored due to an invalid address
system.cpu1.iew.lsq.thread0.memOrderViolation         2010                       # Number of memory ordering violations
system.cpu1.iew.lsq.thread0.rescheduledLoads        10119                       # Number of loads that were rescheduled
system.cpu1.iew.lsq.thread0.squashedLoads      9510315                       # Number of loads squashed
system.cpu1.iew.lsq.thread0.squashedStores      2982545                       # Number of stores squashed
system.cpu1.iew.memOrderViolationEvents          2010                       # Number of memory order violations
system.cpu1.iew.predictedNotTakenIncorrect       502085                       # Number of branches that were predicted not taken incorrectly
system.cpu1.iew.predictedTakenIncorrect       1798696                       # Number of branches that were predicted taken incorrectly
system.cpu1.iew.wb_consumers                 44347356                       # num instructions consuming a value
system.cpu1.iew.wb_count                     79155185                       # cumulative count of insts written-back
system.cpu1.iew.wb_fanout                    0.827125                       # average fanout of values written-back
system.cpu1.iew.wb_producers                 36680807                       # num instructions producing a value
system.cpu1.iew.wb_rate                      0.255062                       # insts written-back per cycle
system.cpu1.iew.wb_sent                      79203124                       # cumulative count of insts sent to commit
system.cpu1.int_regfile_reads               102711800                       # number of integer regfile reads
system.cpu1.int_regfile_writes               52217204                       # number of integer regfile writes
system.cpu1.ipc                              0.218113                       # IPC: Instructions Per Cycle
system.cpu1.ipc_total                        0.218113                       # IPC: Total IPC of All Threads
system.cpu1.iq.FU_type_0::No_OpClass          2100720      2.58%      2.58% # Type of FU issued
system.cpu1.iq.FU_type_0::IntAlu             53196693     65.26%     67.84% # Type of FU issued
system.cpu1.iq.FU_type_0::IntMult                  56      0.00%     67.84% # Type of FU issued
system.cpu1.iq.FU_type_0::IntDiv                   90      0.00%     67.84% # Type of FU issued
system.cpu1.iq.FU_type_0::FloatAdd                  0      0.00%     67.84% # Type of FU issued
system.cpu1.iq.FU_type_0::FloatCmp                  0      0.00%     67.84% # Type of FU issued
system.cpu1.iq.FU_type_0::FloatCvt                  0      0.00%     67.84% # Type of FU issued
system.cpu1.iq.FU_type_0::FloatMult                 0      0.00%     67.84% # Type of FU issued
system.cpu1.iq.FU_type_0::FloatMultAcc              0      0.00%     67.84% # Type of FU issued
system.cpu1.iq.FU_type_0::FloatDiv                  0      0.00%     67.84% # Type of FU issued
system.cpu1.iq.FU_type_0::FloatMisc                 0      0.00%     67.84% # Type of FU issued
system.cpu1.iq.FU_type_0::FloatSqrt                 0      0.00%     67.84% # Type of FU issued
system.cpu1.iq.FU_type_0::SimdAdd                   0      0.00%     67.84% # Type of FU issued
system.cpu1.iq.FU_type_0::SimdAddAcc                0      0.00%     67.84% # Type of FU issued
system.cpu1.iq.FU_type_0::SimdAlu                   0      0.00%     67.84% # Type of FU issued
system.cpu1.iq.FU_type_0::SimdCmp                   0      0.00%     67.84% # Type of FU issued
system.cpu1.iq.FU_type_0::SimdCvt                   0      0.00%     67.84% # Type of FU issued
system.cpu1.iq.FU_type_0::SimdMisc                  0      0.00%     67.84% # Type of FU issued
system.cpu1.iq.FU_type_0::SimdMult                  0      0.00%     67.84% # Type of FU issued
system.cpu1.iq.FU_type_0::SimdMultAcc               0      0.00%     67.84% # Type of FU issued
system.cpu1.iq.FU_type_0::SimdShift                 0      0.00%     67.84% # Type of FU issued
system.cpu1.iq.FU_type_0::SimdShiftAcc              0      0.00%     67.84% # Type of FU issued
system.cpu1.iq.FU_type_0::SimdDiv                   0      0.00%     67.84% # Type of FU issued
system.cpu1.iq.FU_type_0::SimdSqrt                  0      0.00%     67.84% # Type of FU issued
system.cpu1.iq.FU_type_0::SimdFloatAdd              0      0.00%     67.84% # Type of FU issued
system.cpu1.iq.FU_type_0::SimdFloatAlu              0      0.00%     67.84% # Type of FU issued
system.cpu1.iq.FU_type_0::SimdFloatCmp              0      0.00%     67.84% # Type of FU issued
system.cpu1.iq.FU_type_0::SimdFloatCvt              0      0.00%     67.84% # Type of FU issued
system.cpu1.iq.FU_type_0::SimdFloatDiv              0      0.00%     67.84% # Type of FU issued
system.cpu1.iq.FU_type_0::SimdFloatMisc             0      0.00%     67.84% # Type of FU issued
system.cpu1.iq.FU_type_0::SimdFloatMult             0      0.00%     67.84% # Type of FU issued
system.cpu1.iq.FU_type_0::SimdFloatMultAcc            0      0.00%     67.84% # Type of FU issued
system.cpu1.iq.FU_type_0::SimdFloatSqrt             0      0.00%     67.84% # Type of FU issued
system.cpu1.iq.FU_type_0::SimdReduceAdd             0      0.00%     67.84% # Type of FU issued
system.cpu1.iq.FU_type_0::SimdReduceAlu             0      0.00%     67.84% # Type of FU issued
system.cpu1.iq.FU_type_0::SimdReduceCmp             0      0.00%     67.84% # Type of FU issued
system.cpu1.iq.FU_type_0::SimdFloatReduceAdd            0      0.00%     67.84% # Type of FU issued
system.cpu1.iq.FU_type_0::SimdFloatReduceCmp            0      0.00%     67.84% # Type of FU issued
system.cpu1.iq.FU_type_0::SimdAes                   0      0.00%     67.84% # Type of FU issued
system.cpu1.iq.FU_type_0::SimdAesMix                0      0.00%     67.84% # Type of FU issued
system.cpu1.iq.FU_type_0::SimdSha1Hash              0      0.00%     67.84% # Type of FU issued
system.cpu1.iq.FU_type_0::SimdSha1Hash2             0      0.00%     67.84% # Type of FU issued
system.cpu1.iq.FU_type_0::SimdSha256Hash            0      0.00%     67.84% # Type of FU issued
system.cpu1.iq.FU_type_0::SimdSha256Hash2            0      0.00%     67.84% # Type of FU issued
system.cpu1.iq.FU_type_0::SimdShaSigma2             0      0.00%     67.84% # Type of FU issued
system.cpu1.iq.FU_type_0::SimdShaSigma3             0      0.00%     67.84% # Type of FU issued
system.cpu1.iq.FU_type_0::SimdPredAlu               0      0.00%     67.84% # Type of FU issued
system.cpu1.iq.FU_type_0::MemRead            20625342     25.30%     93.14% # Type of FU issued
system.cpu1.iq.FU_type_0::MemWrite            5593559      6.86%    100.00% # Type of FU issued
system.cpu1.iq.FU_type_0::FloatMemRead              0      0.00%    100.00% # Type of FU issued
system.cpu1.iq.FU_type_0::FloatMemWrite            12      0.00%    100.00% # Type of FU issued
system.cpu1.iq.FU_type_0::IprAccess                 0      0.00%    100.00% # Type of FU issued
system.cpu1.iq.FU_type_0::InstPrefetch              0      0.00%    100.00% # Type of FU issued
system.cpu1.iq.FU_type_0::total              81516472                       # Type of FU issued
system.cpu1.iq.fp_alu_accesses                     14                       # Number of floating point alu accesses
system.cpu1.iq.fp_inst_queue_reads                 26                       # Number of floating instruction queue reads
system.cpu1.iq.fp_inst_queue_wakeup_accesses           12                       # Number of floating instruction queue wakeup accesses
system.cpu1.iq.fp_inst_queue_writes                12                       # Number of floating instruction queue writes
system.cpu1.iq.fu_busy_cnt                    1529359                       # FU busy when requested
system.cpu1.iq.fu_busy_rate                  0.018761                       # FU busy rate (busy events/executed inst)
system.cpu1.iq.fu_full::No_OpClass                  0      0.00%      0.00% # attempts to use FU when none available
system.cpu1.iq.fu_full::IntAlu                 344576     22.53%     22.53% # attempts to use FU when none available
system.cpu1.iq.fu_full::IntMult                     0      0.00%     22.53% # attempts to use FU when none available
system.cpu1.iq.fu_full::IntDiv                      0      0.00%     22.53% # attempts to use FU when none available
system.cpu1.iq.fu_full::FloatAdd                    0      0.00%     22.53% # attempts to use FU when none available
system.cpu1.iq.fu_full::FloatCmp                    0      0.00%     22.53% # attempts to use FU when none available
system.cpu1.iq.fu_full::FloatCvt                    0      0.00%     22.53% # attempts to use FU when none available
system.cpu1.iq.fu_full::FloatMult                   0      0.00%     22.53% # attempts to use FU when none available
system.cpu1.iq.fu_full::FloatMultAcc                0      0.00%     22.53% # attempts to use FU when none available
system.cpu1.iq.fu_full::FloatDiv                    0      0.00%     22.53% # attempts to use FU when none available
system.cpu1.iq.fu_full::FloatMisc                   0      0.00%     22.53% # attempts to use FU when none available
system.cpu1.iq.fu_full::FloatSqrt                   0      0.00%     22.53% # attempts to use FU when none available
system.cpu1.iq.fu_full::SimdAdd                     0      0.00%     22.53% # attempts to use FU when none available
system.cpu1.iq.fu_full::SimdAddAcc                  0      0.00%     22.53% # attempts to use FU when none available
system.cpu1.iq.fu_full::SimdAlu                     0      0.00%     22.53% # attempts to use FU when none available
system.cpu1.iq.fu_full::SimdCmp                     0      0.00%     22.53% # attempts to use FU when none available
system.cpu1.iq.fu_full::SimdCvt                     0      0.00%     22.53% # attempts to use FU when none available
system.cpu1.iq.fu_full::SimdMisc                    0      0.00%     22.53% # attempts to use FU when none available
system.cpu1.iq.fu_full::SimdMult                    0      0.00%     22.53% # attempts to use FU when none available
system.cpu1.iq.fu_full::SimdMultAcc                 0      0.00%     22.53% # attempts to use FU when none available
system.cpu1.iq.fu_full::SimdShift                   0      0.00%     22.53% # attempts to use FU when none available
system.cpu1.iq.fu_full::SimdShiftAcc                0      0.00%     22.53% # attempts to use FU when none available
system.cpu1.iq.fu_full::SimdDiv                     0      0.00%     22.53% # attempts to use FU when none available
system.cpu1.iq.fu_full::SimdSqrt                    0      0.00%     22.53% # attempts to use FU when none available
system.cpu1.iq.fu_full::SimdFloatAdd                0      0.00%     22.53% # attempts to use FU when none available
system.cpu1.iq.fu_full::SimdFloatAlu                0      0.00%     22.53% # attempts to use FU when none available
system.cpu1.iq.fu_full::SimdFloatCmp                0      0.00%     22.53% # attempts to use FU when none available
system.cpu1.iq.fu_full::SimdFloatCvt                0      0.00%     22.53% # attempts to use FU when none available
system.cpu1.iq.fu_full::SimdFloatDiv                0      0.00%     22.53% # attempts to use FU when none available
system.cpu1.iq.fu_full::SimdFloatMisc               0      0.00%     22.53% # attempts to use FU when none available
system.cpu1.iq.fu_full::SimdFloatMult               0      0.00%     22.53% # attempts to use FU when none available
system.cpu1.iq.fu_full::SimdFloatMultAcc            0      0.00%     22.53% # attempts to use FU when none available
system.cpu1.iq.fu_full::SimdFloatSqrt               0      0.00%     22.53% # attempts to use FU when none available
system.cpu1.iq.fu_full::SimdReduceAdd               0      0.00%     22.53% # attempts to use FU when none available
system.cpu1.iq.fu_full::SimdReduceAlu               0      0.00%     22.53% # attempts to use FU when none available
system.cpu1.iq.fu_full::SimdReduceCmp               0      0.00%     22.53% # attempts to use FU when none available
system.cpu1.iq.fu_full::SimdFloatReduceAdd            0      0.00%     22.53% # attempts to use FU when none available
system.cpu1.iq.fu_full::SimdFloatReduceCmp            0      0.00%     22.53% # attempts to use FU when none available
system.cpu1.iq.fu_full::SimdAes                     0      0.00%     22.53% # attempts to use FU when none available
system.cpu1.iq.fu_full::SimdAesMix                  0      0.00%     22.53% # attempts to use FU when none available
system.cpu1.iq.fu_full::SimdSha1Hash                0      0.00%     22.53% # attempts to use FU when none available
system.cpu1.iq.fu_full::SimdSha1Hash2               0      0.00%     22.53% # attempts to use FU when none available
system.cpu1.iq.fu_full::SimdSha256Hash              0      0.00%     22.53% # attempts to use FU when none available
system.cpu1.iq.fu_full::SimdSha256Hash2             0      0.00%     22.53% # attempts to use FU when none available
system.cpu1.iq.fu_full::SimdShaSigma2               0      0.00%     22.53% # attempts to use FU when none available
system.cpu1.iq.fu_full::SimdShaSigma3               0      0.00%     22.53% # attempts to use FU when none available
system.cpu1.iq.fu_full::SimdPredAlu                 0      0.00%     22.53% # attempts to use FU when none available
system.cpu1.iq.fu_full::MemRead                944040     61.73%     84.26% # attempts to use FU when none available
[...]
system.cpu1.dcache.WriteReq_mshr_miss_rate::total     0.038958                       # mshr miss rate for WriteReq accesses
system.cpu1.dcache.WriteReq_avg_mshr_miss_latency::.cpu1.data 82732.364818                       # average WriteReq mshr miss latency
system.cpu1.dcache.WriteReq_avg_mshr_miss_latency::total 82732.364818                       # average WriteReq mshr miss latency
system.cpu1.dcache.LoadLockedReq_hits::.cpu1.data      1445435                       # number of LoadLockedReq hits
system.cpu1.dcache.LoadLockedReq_hits::total      1445435                       # number of LoadLockedReq hits
system.cpu1.dcache.LoadLockedReq_misses::.cpu1.data         3758                       # number of LoadLockedReq misses
system.cpu1.dcache.LoadLockedReq_misses::total         3758                       # number of LoadLockedReq misses
system.cpu1.dcache.LoadLockedReq_miss_latency::.cpu1.data    131283000                       # number of LoadLockedReq miss cycles
system.cpu1.dcache.LoadLockedReq_miss_latency::total    131283000                       # number of LoadLockedReq miss cycles
system.cpu1.dcache.LoadLockedReq_accesses::.cpu1.data      1449193                       # number of LoadLockedReq accesses(hits+misses)
system.cpu1.dcache.LoadLockedReq_accesses::total      1449193                       # number of LoadLockedReq accesses(hits+misses)
system.cpu1.dcache.LoadLockedReq_miss_rate::.cpu1.data     0.002593                       # miss rate for LoadLockedReq accesses
system.cpu1.dcache.LoadLockedReq_miss_rate::total     0.002593                       # miss rate for LoadLockedReq accesses
system.cpu1.dcache.LoadLockedReq_avg_miss_latency::.cpu1.data 34934.273550                       # average LoadLockedReq miss latency
system.cpu1.dcache.LoadLockedReq_avg_miss_latency::total 34934.273550                       # average LoadLockedReq miss latency
system.cpu1.dcache.LoadLockedReq_mshr_hits::.cpu1.data          306                       # number of LoadLockedReq MSHR hits
system.cpu1.dcache.LoadLockedReq_mshr_hits::total          306                       # number of LoadLockedReq MSHR hits
system.cpu1.dcache.LoadLockedReq_mshr_misses::.cpu1.data         3452                       # number of LoadLockedReq MSHR misses
system.cpu1.dcache.LoadLockedReq_mshr_misses::total         3452                       # number of LoadLockedReq MSHR misses
system.cpu1.dcache.LoadLockedReq_mshr_miss_latency::.cpu1.data    118236500                       # number of LoadLockedReq MSHR miss cycles
system.cpu1.dcache.LoadLockedReq_mshr_miss_latency::total    118236500                       # number of LoadLockedReq MSHR miss cycles
system.cpu1.dcache.LoadLockedReq_mshr_miss_rate::.cpu1.data     0.002382                       # mshr miss rate for LoadLockedReq accesses
system.cpu1.dcache.LoadLockedReq_mshr_miss_rate::total     0.002382                       # mshr miss rate for LoadLockedReq accesses
system.cpu1.dcache.LoadLockedReq_avg_mshr_miss_latency::.cpu1.data 34251.593279                       # average LoadLockedReq mshr miss latency
system.cpu1.dcache.LoadLockedReq_avg_mshr_miss_latency::total 34251.593279                       # average LoadLockedReq mshr miss latency
system.cpu1.dcache.StoreCondReq_hits::.cpu1.data      1446928                       # number of StoreCondReq hits
system.cpu1.dcache.StoreCondReq_hits::total      1446928                       # number of StoreCondReq hits
system.cpu1.dcache.StoreCondReq_misses::.cpu1.data         1805                       # number of StoreCondReq misses
system.cpu1.dcache.StoreCondReq_misses::total         1805                       # number of StoreCondReq misses
system.cpu1.dcache.StoreCondReq_miss_latency::.cpu1.data     38554500                       # number of StoreCondReq miss cycles
system.cpu1.dcache.StoreCondReq_miss_latency::total     38554500                       # number of StoreCondReq miss cycles
system.cpu1.dcache.StoreCondReq_accesses::.cpu1.data      1448733                       # number of StoreCondReq accesses(hits+misses)
system.cpu1.dcache.StoreCondReq_accesses::total      1448733                       # number of StoreCondReq accesses(hits+misses)
system.cpu1.dcache.StoreCondReq_miss_rate::.cpu1.data     0.001246                       # miss rate for StoreCondReq accesses
system.cpu1.dcache.StoreCondReq_miss_rate::total     0.001246                       # miss rate for StoreCondReq accesses
system.cpu1.dcache.StoreCondReq_avg_miss_latency::.cpu1.data 21359.833795                       # average StoreCondReq miss latency
system.cpu1.dcache.StoreCondReq_avg_miss_latency::total 21359.833795                       # average StoreCondReq miss latency
system.cpu1.dcache.StoreCondReq_mshr_misses::.cpu1.data         1793                       # number of StoreCondReq MSHR misses
system.cpu1.dcache.StoreCondReq_mshr_misses::total         1793                       # number of StoreCondReq MSHR misses
system.cpu1.dcache.StoreCondReq_mshr_miss_latency::.cpu1.data     36812500                       # number of StoreCondReq MSHR miss cycles
system.cpu1.dcache.StoreCondReq_mshr_miss_latency::total     36812500                       # number of StoreCondReq MSHR miss cycles
system.cpu1.dcache.StoreCondReq_mshr_miss_rate::.cpu1.data     0.001238                       # mshr miss rate for StoreCondReq accesses
system.cpu1.dcache.StoreCondReq_mshr_miss_rate::total     0.001238                       # mshr miss rate for StoreCondReq accesses
system.cpu1.dcache.StoreCondReq_avg_mshr_miss_latency::.cpu1.data 20531.232571                       # average StoreCondReq mshr miss latency
system.cpu1.dcache.StoreCondReq_avg_mshr_miss_latency::total 20531.232571                       # average StoreCondReq mshr miss latency
system.cpu1.dcache.StoreCondFailReq_miss_latency::.cpu1.data      1307500                       # number of StoreCondFailReq miss cycles
system.cpu1.dcache.StoreCondFailReq_miss_latency::total      1307500                       # number of StoreCondFailReq miss cycles
system.cpu1.dcache.StoreCondFailReq_avg_miss_latency::.cpu1.data          inf                       # average StoreCondFailReq miss latency
system.cpu1.dcache.StoreCondFailReq_avg_miss_latency::total          inf                       # average StoreCondFailReq miss latency
system.cpu1.dcache.StoreCondFailReq_mshr_miss_latency::.cpu1.data      1256500                       # number of StoreCondFailReq MSHR miss cycles
system.cpu1.dcache.StoreCondFailReq_mshr_miss_latency::total      1256500                       # number of StoreCondFailReq MSHR miss cycles
system.cpu1.dcache.StoreCondFailReq_avg_mshr_miss_latency::.cpu1.data          inf                       # average StoreCondFailReq mshr miss latency
system.cpu1.dcache.StoreCondFailReq_avg_mshr_miss_latency::total          inf                       # average StoreCondFailReq mshr miss latency
system.cpu1.dcache.SwapReq_hits::.cpu1.data          347                       # number of SwapReq hits
system.cpu1.dcache.SwapReq_hits::total            347                       # number of SwapReq hits
system.cpu1.dcache.SwapReq_misses::.cpu1.data         1337                       # number of SwapReq misses
system.cpu1.dcache.SwapReq_misses::total         1337                       # number of SwapReq misses
system.cpu1.dcache.SwapReq_miss_latency::.cpu1.data     51667999                       # number of SwapReq miss cycles
system.cpu1.dcache.SwapReq_miss_latency::total     51667999                       # number of SwapReq miss cycles
system.cpu1.dcache.SwapReq_accesses::.cpu1.data         1684                       # number of SwapReq accesses(hits+misses)
system.cpu1.dcache.SwapReq_accesses::total         1684                       # number of SwapReq accesses(hits+misses)
system.cpu1.dcache.SwapReq_miss_rate::.cpu1.data     0.793943                       # miss rate for SwapReq accesses
system.cpu1.dcache.SwapReq_miss_rate::total     0.793943                       # miss rate for SwapReq accesses
system.cpu1.dcache.SwapReq_avg_miss_latency::.cpu1.data 38644.726253                       # average SwapReq miss latency
system.cpu1.dcache.SwapReq_avg_miss_latency::total 38644.726253                       # average SwapReq miss latency
system.cpu1.dcache.SwapReq_mshr_misses::.cpu1.data         1337                       # number of SwapReq MSHR misses
system.cpu1.dcache.SwapReq_mshr_misses::total         1337                       # number of SwapReq MSHR misses
system.cpu1.dcache.SwapReq_mshr_miss_latency::.cpu1.data     50330999                       # number of SwapReq MSHR miss cycles
system.cpu1.dcache.SwapReq_mshr_miss_latency::total     50330999                       # number of SwapReq MSHR miss cycles
system.cpu1.dcache.SwapReq_mshr_miss_rate::.cpu1.data     0.793943                       # mshr miss rate for SwapReq accesses
system.cpu1.dcache.SwapReq_mshr_miss_rate::total     0.793943                       # mshr miss rate for SwapReq accesses
system.cpu1.dcache.SwapReq_avg_mshr_miss_latency::.cpu1.data 37644.726253                       # average SwapReq mshr miss latency
system.cpu1.dcache.SwapReq_avg_mshr_miss_latency::total 37644.726253                       # average SwapReq mshr miss latency
system.cpu1.dcache.tags.pwrStateResidencyTicks::UNDEFINED 681226412500                       # Cumulative time (in ticks) in various power states
system.cpu1.dcache.tags.tagsinuse           31.963154                       # Cycle average of tags in use
system.cpu1.dcache.tags.total_refs           92424650                       # Total number of references to valid blocks.
system.cpu1.dcache.tags.sampled_refs          7945878                       # Sample count of references to valid blocks.
system.cpu1.dcache.tags.avg_refs            11.631773                       # Average number of references to valid blocks.
system.cpu1.dcache.tags.warmup_cycle                0                       # Cycle when the warmup percentage was hit.
system.cpu1.dcache.tags.occ_blocks::.cpu1.data    31.963154                       # Average occupied blocks per requestor
system.cpu1.dcache.tags.occ_percent::.cpu1.data     0.998849                       # Average percentage of cache occupancy
system.cpu1.dcache.tags.occ_percent::total     0.998849                       # Average percentage of cache occupancy
system.cpu1.dcache.tags.occ_task_id_blocks::1024           29                       # Occupied blocks per task id
system.cpu1.dcache.tags.age_task_id_blocks_1024::2           29                       # Occupied blocks per task id
system.cpu1.dcache.tags.occ_task_id_percent::1024     0.906250                       # Percentage of cache occupancy per task id
system.cpu1.dcache.tags.tag_accesses        211335071                       # Number of tag accesses
system.cpu1.dcache.tags.data_accesses       211335071                       # Number of data accesses
system.cpu_clk_domain.clock                       500                       # Clock period in ticks
system.tol2bus.pwrStateResidencyTicks::UNDEFINED 681226412500                       # Cumulative time (in ticks) in various power states
system.tol2bus.trans_dist::ReadResp          30572328                       # Transaction distribution
system.tol2bus.trans_dist::ReadRespWithInvalidate            1                       # Transaction distribution
system.tol2bus.trans_dist::WritebackDirty     10654234                       # Transaction distribution
system.tol2bus.trans_dist::WritebackClean     25565527                       # Transaction distribution
system.tol2bus.trans_dist::CleanEvict        94470003                       # Transaction distribution
system.tol2bus.trans_dist::HardPFReq         74694666                       # Transaction distribution
system.tol2bus.trans_dist::HardPFResp              25                       # Transaction distribution
system.tol2bus.trans_dist::UpgradeReq           23814                       # Transaction distribution
system.tol2bus.trans_dist::SCUpgradeReq          6274                       # Transaction distribution
system.tol2bus.trans_dist::UpgradeResp          30088                       # Transaction distribution
system.tol2bus.trans_dist::SCUpgradeFailReq          170                       # Transaction distribution
system.tol2bus.trans_dist::UpgradeFailResp          170                       # Transaction distribution
system.tol2bus.trans_dist::ReadExReq           498569                       # Transaction distribution
system.tol2bus.trans_dist::ReadExResp          498569                       # Transaction distribution
system.tol2bus.trans_dist::ReadCleanReq        426866                       # Transaction distribution
system.tol2bus.trans_dist::ReadSharedReq     30145463                       # Transaction distribution
system.tol2bus.trans_dist::InvalidateReq          331                       # Transaction distribution
system.tol2bus.trans_dist::InvalidateResp          331                       # Transaction distribution
system.tol2bus.pkt_count_system.cpu0.icache.mem_side::system.l2.cpu_side      1227623                       # Packet count per connected master and slave (bytes)
system.tol2bus.pkt_count_system.cpu0.dcache.mem_side::system.l2.cpu_side     28707809                       # Packet count per connected master and slave (bytes)
system.tol2bus.pkt_count_system.cpu1.icache.mem_side::system.l2.cpu_side        17766                       # Packet count per connected master and slave (bytes)
system.tol2bus.pkt_count_system.cpu1.dcache.mem_side::system.l2.cpu_side     23841822                       # Packet count per connected master and slave (bytes)
system.tol2bus.pkt_count_system.cpu2.icache.mem_side::system.l2.cpu_side        17796                       # Packet count per connected master and slave (bytes)
system.tol2bus.pkt_count_system.cpu2.dcache.mem_side::system.l2.cpu_side     20758564                       # Packet count per connected master and slave (bytes)
system.tol2bus.pkt_count_system.cpu3.icache.mem_side::system.l2.cpu_side        17301                       # Packet count per connected master and slave (bytes)
system.tol2bus.pkt_count_system.cpu3.dcache.mem_side::system.l2.cpu_side     18605072                       # Packet count per connected master and slave (bytes)
system.tol2bus.pkt_count::total              93193753                       # Packet count per connected master and slave (bytes)
system.tol2bus.pkt_size_system.cpu0.icache.mem_side::system.l2.cpu_side     52376192                       # Cumulative packet size per connected master and slave (bytes)
system.tol2bus.pkt_size_system.cpu0.dcache.mem_side::system.l2.cpu_side   1223871296                       # Cumulative packet size per connected master and slave (bytes)
system.tol2bus.pkt_size_system.cpu1.icache.mem_side::system.l2.cpu_side       758016                       # Cumulative packet size per connected master and slave (bytes)
system.tol2bus.pkt_size_system.cpu1.dcache.mem_side::system.l2.cpu_side   1016150016                       # Cumulative packet size per connected master and slave (bytes)
system.tol2bus.pkt_size_system.cpu2.icache.mem_side::system.l2.cpu_side       759296                       # Cumulative packet size per connected master and slave (bytes)
system.tol2bus.pkt_size_system.cpu2.dcache.mem_side::system.l2.cpu_side    884712768                       # Cumulative packet size per connected master and slave (bytes)
system.tol2bus.pkt_size_system.cpu3.icache.mem_side::system.l2.cpu_side       738176                       # Cumulative packet size per connected master and slave (bytes)
system.tol2bus.pkt_size_system.cpu3.dcache.mem_side::system.l2.cpu_side    792871168                       # Cumulative packet size per connected master and slave (bytes)
system.tol2bus.pkt_size::total             3972236928                       # Cumulative packet size per connected master and slave (bytes)
system.tol2bus.snoops                       174393701                       # Total snoops (count)
system.tol2bus.snoopTraffic                 334379328                       # Total snoop traffic (bytes)
system.tol2bus.snoop_fanout::samples        206826867                       # Request fanout histogram
system.tol2bus.snoop_fanout::mean            0.155942                       # Request fanout histogram
system.tol2bus.snoop_fanout::stdev           0.422448                       # Request fanout histogram
system.tol2bus.snoop_fanout::underflows             0      0.00%      0.00% # Request fanout histogram
system.tol2bus.snoop_fanout::0              177662033     85.90%     85.90% # Request fanout histogram
system.tol2bus.snoop_fanout::1               27513453     13.30%     99.20% # Request fanout histogram
system.tol2bus.snoop_fanout::2                 533420      0.26%     99.46% # Request fanout histogram
system.tol2bus.snoop_fanout::3                 799170      0.39%     99.85% # Request fanout histogram
system.tol2bus.snoop_fanout::4                 318791      0.15%    100.00% # Request fanout histogram
system.tol2bus.snoop_fanout::5                      0      0.00%    100.00% # Request fanout histogram
system.tol2bus.snoop_fanout::6                      0      0.00%    100.00% # Request fanout histogram
system.tol2bus.snoop_fanout::7                      0      0.00%    100.00% # Request fanout histogram
system.tol2bus.snoop_fanout::8                      0      0.00%    100.00% # Request fanout histogram
system.tol2bus.snoop_fanout::overflows              0      0.00%    100.00% # Request fanout histogram
system.tol2bus.snoop_fanout::min_value              0                       # Request fanout histogram
system.tol2bus.snoop_fanout::max_value              4                       # Request fanout histogram
system.tol2bus.snoop_fanout::total          206826867                       # Request fanout histogram
system.tol2bus.reqLayer0.occupancy        64338184427                       # Layer occupancy (ticks)
system.tol2bus.reqLayer0.utilization              9.4                       # Layer utilization (%)
system.tol2bus.respLayer5.occupancy       10398048330                       # Layer occupancy (ticks)
system.tol2bus.respLayer5.utilization             1.5                       # Layer utilization (%)
system.tol2bus.respLayer4.occupancy           9257640                       # Layer occupancy (ticks)
system.tol2bus.respLayer4.utilization             0.0                       # Layer utilization (%)
system.tol2bus.respLayer7.occupancy        9320264132                       # Layer occupancy (ticks)
system.tol2bus.respLayer7.utilization             1.4                       # Layer utilization (%)
system.tol2bus.respLayer6.occupancy           8961257                       # Layer occupancy (ticks)
system.tol2bus.respLayer6.utilization             0.0                       # Layer utilization (%)
system.tol2bus.respLayer1.occupancy       14372187979                       # Layer occupancy (ticks)
system.tol2bus.respLayer1.utilization             2.1                       # Layer utilization (%)
system.tol2bus.respLayer0.occupancy         614027166                       # Layer occupancy (ticks)
system.tol2bus.respLayer0.utilization             0.1                       # Layer utilization (%)
system.tol2bus.respLayer3.occupancy       11935468836                       # Layer occupancy (ticks)
system.tol2bus.respLayer3.utilization             1.8                       # Layer utilization (%)
system.tol2bus.respLayer2.occupancy           9231137                       # Layer occupancy (ticks)
system.tol2bus.respLayer2.utilization             0.0                       # Layer utilization (%)
system.tol2bus.snoopLayer0.occupancy            37525                       # Layer occupancy (ticks)
system.tol2bus.snoopLayer0.utilization            0.0                       # Layer utilization (%)

---------- End Simulation Statistics   ----------
