
---------- Begin Simulation Statistics ----------
final_tick                               589457216000                       # Number of ticks from beginning of simulation (restored from checkpoints and never reset)
host_inst_rate                                  59703                       # Simulator instruction rate (inst/s)
host_mem_usage                                 701516                       # Number of bytes of host memory used
host_op_rate                                    59901                       # Simulator op (including micro ops) rate (op/s)
host_seconds                                 10259.95                       # Real time elapsed on the host
host_tick_rate                               57452256                       # Simulator tick rate (ticks/s)
sim_freq                                 1000000000000                       # Frequency of simulated ticks
sim_insts                                   612547934                       # Number of instructions simulated
sim_ops                                     614585516                       # Number of ops (including micro ops) simulated
sim_seconds                                  0.589457                       # Number of seconds simulated
sim_ticks                                589457216000                       # Number of ticks simulated
system.cpu0.branchPred.BTBCorrect                   0                       # Number of correct BTB predictions (this stat may not work properly.
system.cpu0.branchPred.BTBHitPct            86.945376                       # BTB Hit Percentage
system.cpu0.branchPred.BTBHits               78204751                       # Number of BTB hits
system.cpu0.branchPred.BTBLookups            89946993                       # Number of BTB lookups
system.cpu0.branchPred.RASInCorrect                 0                       # Number of incorrect RAS predictions.
system.cpu0.branchPred.condIncorrect          7166206                       # Number of conditional branches incorrect
system.cpu0.branchPred.condPredicted        120537176                       # Number of conditional branches predicted
system.cpu0.branchPred.indirectHits          10560145                       # Number of indirect target hits.
system.cpu0.branchPred.indirectLookups       10733372                       # Number of indirect predictor lookups.
system.cpu0.branchPred.indirectMisses          173227                       # Number of indirect misses.
system.cpu0.branchPred.lookups              154563532                       # Number of BP lookups
system.cpu0.branchPred.usedRAS                      0                       # Number of times the RAS was used to get a target.
system.cpu0.branchPredindirectMispredicted      1061872                       # Number of mispredicted indirect branches.
system.cpu0.commit.amos                       1018205                       # Number of atomic instructions committed
system.cpu0.commit.branchMispredicts          5002975                       # The number of times a branch was mispredicted
system.cpu0.commit.branches                 143203629                       # Number of branches committed
system.cpu0.commit.bw_lim_events             16581440                       # number cycles where commit BW limit reached
system.cpu0.commit.commitNonSpecStalls        3058485                       # The number of times commit has been forced to stall to communicate backwards
system.cpu0.commit.commitSquashedInsts       39518322                       # The number of squashed insts skipped by commit
system.cpu0.commit.committedInsts           580283445                       # Number of instructions committed
system.cpu0.commit.committedOps             581302930                       # Number of ops (including micro ops) committed
system.cpu0.commit.committed_per_cycle::samples   1080016767                       # Number of insts commited each cycle
system.cpu0.commit.committed_per_cycle::mean     0.538235                       # Number of insts commited each cycle
system.cpu0.commit.committed_per_cycle::stdev     1.303824                       # Number of insts commited each cycle
system.cpu0.commit.committed_per_cycle::underflows            0      0.00%      0.00% # Number of insts commited each cycle
system.cpu0.commit.committed_per_cycle::0    795677302     73.67%     73.67% # Number of insts commited each cycle
system.cpu0.commit.committed_per_cycle::1    173279842     16.04%     89.72% # Number of insts commited each cycle
system.cpu0.commit.committed_per_cycle::2     39739172      3.68%     93.40% # Number of insts commited each cycle
system.cpu0.commit.committed_per_cycle::3     36118167      3.34%     96.74% # Number of insts commited each cycle
system.cpu0.commit.committed_per_cycle::4     11022109      1.02%     97.76% # Number of insts commited each cycle
system.cpu0.commit.committed_per_cycle::5      4143004      0.38%     98.14% # Number of insts commited each cycle
system.cpu0.commit.committed_per_cycle::6      1454850      0.13%     98.28% # Number of insts commited each cycle
system.cpu0.commit.committed_per_cycle::7      2000881      0.19%     98.46% # Number of insts commited each cycle
system.cpu0.commit.committed_per_cycle::8     16581440      1.54%    100.00% # Number of insts commited each cycle
system.cpu0.commit.committed_per_cycle::overflows            0      0.00%    100.00% # Number of insts commited each cycle
system.cpu0.commit.committed_per_cycle::min_value            0                       # Number of insts commited each cycle
system.cpu0.commit.committed_per_cycle::max_value            8                       # Number of insts commited each cycle
system.cpu0.commit.committed_per_cycle::total   1080016767                       # Number of insts commited each cycle
system.cpu0.commit.fp_insts                        46                       # Number of committed floating point instructions.
system.cpu0.commit.function_calls            11887297                       # Number of function calls committed.
system.cpu0.commit.int_insts                561281927                       # Number of committed integer instructions.
system.cpu0.commit.loads                    179950769                       # Number of loads committed
system.cpu0.commit.membars                    2037585                       # Number of memory barriers committed
system.cpu0.commit.op_class_0::No_OpClass      2037591      0.35%      0.35% # Class of committed instruction
system.cpu0.commit.op_class_0::IntAlu       322225380     55.43%     55.78% # Class of committed instruction
system.cpu0.commit.op_class_0::IntMult        4135822      0.71%     56.49% # Class of committed instruction
system.cpu0.commit.op_class_0::IntDiv         1017773      0.18%     56.67% # Class of committed instruction
system.cpu0.commit.op_class_0::FloatAdd             0      0.00%     56.67% # Class of committed instruction
system.cpu0.commit.op_class_0::FloatCmp             4      0.00%     56.67% # Class of committed instruction
system.cpu0.commit.op_class_0::FloatCvt            12      0.00%     56.67% # Class of committed instruction
system.cpu0.commit.op_class_0::FloatMult            0      0.00%     56.67% # Class of committed instruction
system.cpu0.commit.op_class_0::FloatMultAcc            0      0.00%     56.67% # Class of committed instruction
system.cpu0.commit.op_class_0::FloatDiv             2      0.00%     56.67% # Class of committed instruction
system.cpu0.commit.op_class_0::FloatMisc            4      0.00%     56.67% # Class of committed instruction
system.cpu0.commit.op_class_0::FloatSqrt            0      0.00%     56.67% # Class of committed instruction
system.cpu0.commit.op_class_0::SimdAdd              0      0.00%     56.67% # Class of committed instruction
system.cpu0.commit.op_class_0::SimdAddAcc            0      0.00%     56.67% # Class of committed instruction
system.cpu0.commit.op_class_0::SimdAlu              0      0.00%     56.67% # Class of committed instruction
system.cpu0.commit.op_class_0::SimdCmp              0      0.00%     56.67% # Class of committed instruction
system.cpu0.commit.op_class_0::SimdCvt              0      0.00%     56.67% # Class of committed instruction
system.cpu0.commit.op_class_0::SimdMisc             0      0.00%     56.67% # Class of committed instruction
system.cpu0.commit.op_class_0::SimdMult             0      0.00%     56.67% # Class of committed instruction
system.cpu0.commit.op_class_0::SimdMultAcc            0      0.00%     56.67% # Class of committed instruction
system.cpu0.commit.op_class_0::SimdShift            0      0.00%     56.67% # Class of committed instruction
system.cpu0.commit.op_class_0::SimdShiftAcc            0      0.00%     56.67% # Class of committed instruction
system.cpu0.commit.op_class_0::SimdDiv              0      0.00%     56.67% # Class of committed instruction
system.cpu0.commit.op_class_0::SimdSqrt             0      0.00%     56.67% # Class of committed instruction
system.cpu0.commit.op_class_0::SimdFloatAdd            0      0.00%     56.67% # Class of committed instruction
system.cpu0.commit.op_class_0::SimdFloatAlu            0      0.00%     56.67% # Class of committed instruction
system.cpu0.commit.op_class_0::SimdFloatCmp            0      0.00%     56.67% # Class of committed instruction
system.cpu0.commit.op_class_0::SimdFloatCvt            0      0.00%     56.67% # Class of committed instruction
system.cpu0.commit.op_class_0::SimdFloatDiv            0      0.00%     56.67% # Class of committed instruction
system.cpu0.commit.op_class_0::SimdFloatMisc            0      0.00%     56.67% # Class of committed instruction
system.cpu0.commit.op_class_0::SimdFloatMult            0      0.00%     56.67% # Class of committed instruction
system.cpu0.commit.op_class_0::SimdFloatMultAcc            0      0.00%     56.67% # Class of committed instruction
system.cpu0.commit.op_class_0::SimdFloatSqrt            0      0.00%     56.67% # Class of committed instruction
system.cpu0.commit.op_class_0::SimdReduceAdd            0      0.00%     56.67% # Class of committed instruction
system.cpu0.commit.op_class_0::SimdReduceAlu            0      0.00%     56.67% # Class of committed instruction
system.cpu0.commit.op_class_0::SimdReduceCmp            0      0.00%     56.67% # Class of committed instruction
system.cpu0.commit.op_class_0::SimdFloatReduceAdd            0      0.00%     56.67% # Class of committed instruction
system.cpu0.commit.op_class_0::SimdFloatReduceCmp            0      0.00%     56.67% # Class of committed instruction
system.cpu0.commit.op_class_0::SimdAes              0      0.00%     56.67% # Class of committed instruction
system.cpu0.commit.op_class_0::SimdAesMix            0      0.00%     56.67% # Class of committed instruction
system.cpu0.commit.op_class_0::SimdSha1Hash            0      0.00%     56.67% # Class of committed instruction
system.cpu0.commit.op_class_0::SimdSha1Hash2            0      0.00%     56.67% # Class of committed instruction
system.cpu0.commit.op_class_0::SimdSha256Hash            0      0.00%     56.67% # Class of committed instruction
system.cpu0.commit.op_class_0::SimdSha256Hash2            0      0.00%     56.67% # Class of committed instruction
system.cpu0.commit.op_class_0::SimdShaSigma2            0      0.00%     56.67% # Class of committed instruction
system.cpu0.commit.op_class_0::SimdShaSigma3            0      0.00%     56.67% # Class of committed instruction
system.cpu0.commit.op_class_0::SimdPredAlu            0      0.00%     56.67% # Class of committed instruction
system.cpu0.commit.op_class_0::MemRead      180968966     31.13%     87.80% # Class of committed instruction
system.cpu0.commit.op_class_0::MemWrite      70917352     12.20%    100.00% # Class of committed instruction
system.cpu0.commit.op_class_0::FloatMemRead            8      0.00%    100.00% # Class of committed instruction
system.cpu0.commit.op_class_0::FloatMemWrite           16      0.00%    100.00% # Class of committed instruction
system.cpu0.commit.op_class_0::IprAccess            0      0.00%    100.00% # Class of committed instruction
system.cpu0.commit.op_class_0::InstPrefetch            0      0.00%    100.00% # Class of committed instruction
system.cpu0.commit.op_class_0::total        581302930                       # Class of committed instruction
system.cpu0.commit.refs                     251886342                       # Number of memory references committed
system.cpu0.commit.swp_count                        0                       # Number of s/w prefetches committed
system.cpu0.commit.vec_insts                        0                       # Number of committed Vector instructions.
system.cpu0.committedInsts                  580283445                       # Number of Instructions Simulated
system.cpu0.committedOps                    581302930                       # Number of Ops (including micro ops) Simulated
system.cpu0.cpi                              2.011790                       # CPI: Cycles Per Instruction
system.cpu0.cpi_total                        2.011790                       # CPI: Total CPI of All Threads
system.cpu0.decode.BlockedCycles            195500556                       # Number of cycles decode is blocked
system.cpu0.decode.BranchMispred              2175948                       # Number of times decode detected a branch misprediction
system.cpu0.decode.BranchResolved            77445834                       # Number of times decode resolved a branch
system.cpu0.decode.DecodedInsts             633594485                       # Number of instructions handled by decode
system.cpu0.decode.IdleCycles               446969974                       # Number of cycles decode is idle
system.cpu0.decode.RunCycles                437307649                       # Number of cycles decode is running
system.cpu0.decode.SquashCycles               5009735                       # Number of cycles decode is squashing
system.cpu0.decode.SquashedInsts              4362182                       # Number of squashed instructions handled by decode
system.cpu0.decode.UnblockCycles              3182511                       # Number of cycles decode is unblocking
system.cpu0.dtb.accesses                            0                       # DTB accesses
system.cpu0.dtb.hits                                0                       # DTB hits
system.cpu0.dtb.misses                              0                       # DTB misses
system.cpu0.dtb.read_accesses                       0                       # DTB read accesses
system.cpu0.dtb.read_hits                           0                       # DTB read hits
system.cpu0.dtb.read_misses                         0                       # DTB read misses
system.cpu0.dtb.write_accesses                      0                       # DTB write accesses
system.cpu0.dtb.write_hits                          0                       # DTB write hits
system.cpu0.dtb.write_misses                        0                       # DTB write misses
system.cpu0.fetch.Branches                  154563532                       # Number of branches that fetch encountered
system.cpu0.fetch.CacheLines                109586722                       # Number of cache lines fetched
system.cpu0.fetch.Cycles                    638790334                       # Number of cycles fetch has run and was not squashing or blocked
system.cpu0.fetch.IcacheSquashes              3005799                       # Number of outstanding Icache misses that were squashed
system.cpu0.fetch.IcacheWaitRetryStallCycles          111                       # Number of stall cycles due to full MSHR
system.cpu0.fetch.Insts                     642878433                       # Number of instructions fetch has processed
system.cpu0.fetch.MiscStallCycles                 109                       # Number of cycles fetch has spent waiting on interrupts, or bad addresses, or out of MSHRs
system.cpu0.fetch.SquashCycles               14345932                       # Number of cycles fetch has spent squashing
system.cpu0.fetch.branchRate                 0.132399                       # Number of branch fetches per cycle
system.cpu0.fetch.icacheStallCycles         442006905                       # Number of cycles fetch is stalled on an Icache miss
system.cpu0.fetch.predictedBranches          88764896                       # Number of branches that fetch has predicted taken
system.cpu0.fetch.rate                       0.550689                       # Number of inst fetches per cycle
system.cpu0.fetch.rateDist::samples        1087970425                       # Number of instructions fetched each cycle (Total)
system.cpu0.fetch.rateDist::mean             0.591835                       # Number of instructions fetched each cycle (Total)
system.cpu0.fetch.rateDist::stdev            0.881195                       # Number of instructions fetched each cycle (Total)
system.cpu0.fetch.rateDist::underflows              0      0.00%      0.00% # Number of instructions fetched each cycle (Total)
system.cpu0.fetch.rateDist::0               629713522     57.88%     57.88% # Number of instructions fetched each cycle (Total)
system.cpu0.fetch.rateDist::1               339358898     31.19%     89.07% # Number of instructions fetched each cycle (Total)
system.cpu0.fetch.rateDist::2                71468651      6.57%     95.64% # Number of instructions fetched each cycle (Total)
system.cpu0.fetch.rateDist::3                38153697      3.51%     99.15% # Number of instructions fetched each cycle (Total)
system.cpu0.fetch.rateDist::4                 4407231      0.41%     99.55% # Number of instructions fetched each cycle (Total)
system.cpu0.fetch.rateDist::5                 2765878      0.25%     99.81% # Number of instructions fetched each cycle (Total)
system.cpu0.fetch.rateDist::6                   57897      0.01%     99.81% # Number of instructions fetched each cycle (Total)
system.cpu0.fetch.rateDist::7                 1021738      0.09%     99.91% # Number of instructions fetched each cycle (Total)
system.cpu0.fetch.rateDist::8                 1022913      0.09%    100.00% # Number of instructions fetched each cycle (Total)
system.cpu0.fetch.rateDist::overflows               0      0.00%    100.00% # Number of instructions fetched each cycle (Total)
system.cpu0.fetch.rateDist::min_value               0                       # Number of instructions fetched each cycle (Total)
system.cpu0.fetch.rateDist::max_value               8                       # Number of instructions fetched each cycle (Total)
system.cpu0.fetch.rateDist::total          1087970425                       # Number of instructions fetched each cycle (Total)
system.cpu0.fp_regfile_reads                       40                       # number of floating regfile reads
system.cpu0.fp_regfile_writes                      25                       # number of floating regfile writes
system.cpu0.idleCycles                       79437890                       # Total number of cycles that the CPU has spent unscheduled due to idling
system.cpu0.iew.branchMispredicts             5080283                       # Number of branch mispredicts detected at execute
system.cpu0.iew.exec_branches               147203644                       # Number of branches executed
system.cpu0.iew.exec_nop                            0                       # number of nop insts executed
system.cpu0.iew.exec_rate                    0.523870                       # Inst execution rate
system.cpu0.iew.exec_refs                   269061761                       # number of memory reference insts executed
system.cpu0.iew.exec_stores                  75011690                       # Number of stores executed
system.cpu0.iew.exec_swp                            0                       # number of swp insts executed
system.cpu0.iew.iewBlockCycles              154028806                       # Number of cycles IEW is blocking
system.cpu0.iew.iewDispLoadInsts            194878122                       # Number of dispatched load instructions
system.cpu0.iew.iewDispNonSpecInsts           1021074                       # Number of dispatched non-speculative instructions
system.cpu0.iew.iewDispSquashedInsts          2413184                       # Number of squashed instructions skipped by dispatch
system.cpu0.iew.iewDispStoreInsts            76731112                       # Number of dispatched store instructions
system.cpu0.iew.iewDispatchedInsts          620799043                       # Number of instructions dispatched to IQ
system.cpu0.iew.iewExecLoadInsts            194050071                       # Number of load instructions executed
system.cpu0.iew.iewExecSquashedInsts          5261371                       # Number of squashed instructions skipped in execute
system.cpu0.iew.iewExecutedInsts            611570113                       # Number of executed instructions
system.cpu0.iew.iewIQFullEvents                748497                       # Number of times the IQ has become full, causing a stall
system.cpu0.iew.iewIdleCycles                       0                       # Number of cycles IEW is idle
system.cpu0.iew.iewLSQFullEvents              4731313                       # Number of times the LSQ has become full, causing a stall
system.cpu0.iew.iewSquashCycles               5009735                       # Number of cycles IEW is squashing
system.cpu0.iew.iewUnblockCycles              6779539                       # Number of cycles IEW is unblocking
system.cpu0.iew.lsq.thread0.blockedLoads            0                       # Number of blocked loads due to partial load-store forwarding
system.cpu0.iew.lsq.thread0.cacheBlocked       111483                       # Number of times an access to memory failed due to the cache being blocked
system.cpu0.iew.lsq.thread0.forwLoads         8644459                       # Number of loads that had data forwarded from stores
system.cpu0.iew.lsq.thread0.ignoredResponses        32093                       # Number of memory responses ignored because the instruction is squashed
system.cpu0.iew.lsq.thread0.invAddrLoads            0                       # Number of loads ignored due to an invalid address
system.cpu0.iew.lsq.thread0.invAddrSwpfs            0                       # Number of software prefetches ignored due to an invalid address
system.cpu0.iew.lsq.thread0.memOrderViolation         8119                       # Number of memory ordering violations
system.cpu0.iew.lsq.thread0.rescheduledLoads      2415908                       # Number of loads that were rescheduled
system.cpu0.iew.lsq.thread0.squashedLoads     14927353                       # Number of loads squashed
system.cpu0.iew.lsq.thread0.squashedStores      4795539                       # Number of stores squashed
system.cpu0.iew.memOrderViolationEvents          8119                       # Number of memory order violations
system.cpu0.iew.predictedNotTakenIncorrect       855629                       # Number of branches that were predicted not taken incorrectly
system.cpu0.iew.predictedTakenIncorrect       4224654                       # Number of branches that were predicted taken incorrectly
system.cpu0.iew.wb_consumers                252658387                       # num instructions consuming a value
system.cpu0.iew.wb_count                    605376155                       # cumulative count of insts written-back
system.cpu0.iew.wb_fanout                    0.883831                       # average fanout of values written-back
system.cpu0.iew.wb_producers                223307194                       # num instructions producing a value
system.cpu0.iew.wb_rate                      0.518564                       # insts written-back per cycle
system.cpu0.iew.wb_sent                     605436622                       # cumulative count of insts sent to commit
system.cpu0.int_regfile_reads               745700804                       # number of integer regfile reads
system.cpu0.int_regfile_writes              387813529                       # number of integer regfile writes
system.cpu0.ipc                              0.497070                       # IPC: Instructions Per Cycle
system.cpu0.ipc_total                        0.497070                       # IPC: Total IPC of All Threads
system.cpu0.iq.FU_type_0::No_OpClass          2038479      0.33%      0.33% # Type of FU issued
system.cpu0.iq.FU_type_0::IntAlu            337786066     54.76%     55.09% # Type of FU issued
system.cpu0.iq.FU_type_0::IntMult             4139026      0.67%     55.76% # Type of FU issued
system.cpu0.iq.FU_type_0::IntDiv              1018064      0.17%     55.93% # Type of FU issued
system.cpu0.iq.FU_type_0::FloatAdd                  0      0.00%     55.93% # Type of FU issued
system.cpu0.iq.FU_type_0::FloatCmp                  4      0.00%     55.93% # Type of FU issued
system.cpu0.iq.FU_type_0::FloatCvt                 12      0.00%     55.93% # Type of FU issued
system.cpu0.iq.FU_type_0::FloatMult                 0      0.00%     55.93% # Type of FU issued
system.cpu0.iq.FU_type_0::FloatMultAcc              0      0.00%     55.93% # Type of FU issued
system.cpu0.iq.FU_type_0::FloatDiv                  2      0.00%     55.93% # Type of FU issued
system.cpu0.iq.FU_type_0::FloatMisc                 4      0.00%     55.93% # Type of FU issued
system.cpu0.iq.FU_type_0::FloatSqrt                 0      0.00%     55.93% # Type of FU issued
system.cpu0.iq.FU_type_0::SimdAdd                   0      0.00%     55.93% # Type of FU issued
system.cpu0.iq.FU_type_0::SimdAddAcc                0      0.00%     55.93% # Type of FU issued
system.cpu0.iq.FU_type_0::SimdAlu                   0      0.00%     55.93% # Type of FU issued
system.cpu0.iq.FU_type_0::SimdCmp                   0      0.00%     55.93% # Type of FU issued
system.cpu0.iq.FU_type_0::SimdCvt                   0      0.00%     55.93% # Type of FU issued
system.cpu0.iq.FU_type_0::SimdMisc                  0      0.00%     55.93% # Type of FU issued
system.cpu0.iq.FU_type_0::SimdMult                  0      0.00%     55.93% # Type of FU issued
system.cpu0.iq.FU_type_0::SimdMultAcc               0      0.00%     55.93% # Type of FU issued
system.cpu0.iq.FU_type_0::SimdShift                 0      0.00%     55.93% # Type of FU issued
system.cpu0.iq.FU_type_0::SimdShiftAcc              0      0.00%     55.93% # Type of FU issued
system.cpu0.iq.FU_type_0::SimdDiv                   0      0.00%     55.93% # Type of FU issued
system.cpu0.iq.FU_type_0::SimdSqrt                  0      0.00%     55.93% # Type of FU issued
system.cpu0.iq.FU_type_0::SimdFloatAdd              0      0.00%     55.93% # Type of FU issued
system.cpu0.iq.FU_type_0::SimdFloatAlu              0      0.00%     55.93% # Type of FU issued
system.cpu0.iq.FU_type_0::SimdFloatCmp              0      0.00%     55.93% # Type of FU issued
system.cpu0.iq.FU_type_0::SimdFloatCvt              0      0.00%     55.93% # Type of FU issued
system.cpu0.iq.FU_type_0::SimdFloatDiv              0      0.00%     55.93% # Type of FU issued
system.cpu0.iq.FU_type_0::SimdFloatMisc             0      0.00%     55.93% # Type of FU issued
system.cpu0.iq.FU_type_0::SimdFloatMult             0      0.00%     55.93% # Type of FU issued
system.cpu0.iq.FU_type_0::SimdFloatMultAcc            0      0.00%     55.93% # Type of FU issued
system.cpu0.iq.FU_type_0::SimdFloatSqrt             0      0.00%     55.93% # Type of FU issued
system.cpu0.iq.FU_type_0::SimdReduceAdd             0      0.00%     55.93% # Type of FU issued
system.cpu0.iq.FU_type_0::SimdReduceAlu             0      0.00%     55.93% # Type of FU issued
system.cpu0.iq.FU_type_0::SimdReduceCmp             0      0.00%     55.93% # Type of FU issued
system.cpu0.iq.FU_type_0::SimdFloatReduceAdd            0      0.00%     55.93% # Type of FU issued
system.cpu0.iq.FU_type_0::SimdFloatReduceCmp            0      0.00%     55.93% # Type of FU issued
system.cpu0.iq.FU_type_0::SimdAes                   0      0.00%     55.93% # Type of FU issued
system.cpu0.iq.FU_type_0::SimdAesMix                0      0.00%     55.93% # Type of FU issued
system.cpu0.iq.FU_type_0::SimdSha1Hash              0      0.00%     55.93% # Type of FU issued
system.cpu0.iq.FU_type_0::SimdSha1Hash2             0      0.00%     55.93% # Type of FU issued
system.cpu0.iq.FU_type_0::SimdSha256Hash            0      0.00%     55.93% # Type of FU issued
system.cpu0.iq.FU_type_0::SimdSha256Hash2            0      0.00%     55.93% # Type of FU issued
system.cpu0.iq.FU_type_0::SimdShaSigma2             0      0.00%     55.93% # Type of FU issued
system.cpu0.iq.FU_type_0::SimdShaSigma3             0      0.00%     55.93% # Type of FU issued
system.cpu0.iq.FU_type_0::SimdPredAlu               0      0.00%     55.93% # Type of FU issued
system.cpu0.iq.FU_type_0::MemRead           196883269     31.92%     87.85% # Type of FU issued
system.cpu0.iq.FU_type_0::MemWrite           74966529     12.15%    100.00% # Type of FU issued
system.cpu0.iq.FU_type_0::FloatMemRead             14      0.00%    100.00% # Type of FU issued
system.cpu0.iq.FU_type_0::FloatMemWrite            16      0.00%    100.00% # Type of FU issued
system.cpu0.iq.FU_type_0::IprAccess                 0      0.00%    100.00% # Type of FU issued
system.cpu0.iq.FU_type_0::InstPrefetch              0      0.00%    100.00% # Type of FU issued
system.cpu0.iq.FU_type_0::total             616831485                       # Type of FU issued
system.cpu0.iq.fp_alu_accesses                     54                       # Number of floating point alu accesses
system.cpu0.iq.fp_inst_queue_reads                106                       # Number of floating instruction queue reads
system.cpu0.iq.fp_inst_queue_wakeup_accesses           49                       # Number of floating instruction queue wakeup accesses
system.cpu0.iq.fp_inst_queue_writes               150                       # Number of floating instruction queue writes
system.cpu0.iq.fu_busy_cnt                    1346461                       # FU busy when requested
system.cpu0.iq.fu_busy_rate                  0.002183                       # FU busy rate (busy events/executed inst)
system.cpu0.iq.fu_full::No_OpClass                  0      0.00%      0.00% # attempts to use FU when none available
system.cpu0.iq.fu_full::IntAlu                 275865     20.49%     20.49% # attempts to use FU when none available
system.cpu0.iq.fu_full::IntMult                     0      0.00%     20.49% # attempts to use FU when none available
system.cpu0.iq.fu_full::IntDiv                      0      0.00%     20.49% # attempts to use FU when none available
system.cpu0.iq.fu_full::FloatAdd                    0      0.00%     20.49% # attempts to use FU when none available
system.cpu0.iq.fu_full::FloatCmp                    0      0.00%     20.49% # attempts to use FU when none available
system.cpu0.iq.fu_full::FloatCvt                    0      0.00%     20.49% # attempts to use FU when none available
system.cpu0.iq.fu_full::FloatMult                   0      0.00%     20.49% # attempts to use FU when none available
system.cpu0.iq.fu_full::FloatMultAcc                0      0.00%     20.49% # attempts to use FU when none available
system.cpu0.iq.fu_full::FloatDiv                    0      0.00%     20.49% # attempts to use FU when none available
system.cpu0.iq.fu_full::FloatMisc                   0      0.00%     20.49% # attempts to use FU when none available
system.cpu0.iq.fu_full::FloatSqrt                   0      0.00%     20.49% # attempts to use FU when none available
system.cpu0.iq.fu_full::SimdAdd                     0      0.00%     20.49% # attempts to use FU when none available
system.cpu0.iq.fu_full::SimdAddAcc                  0      0.00%     20.49% # attempts to use FU when none available
system.cpu0.iq.fu_full::SimdAlu                     0      0.00%     20.49% # attempts to use FU when none available
system.cpu0.iq.fu_full::SimdCmp                     0      0.00%     20.49% # attempts to use FU when none available
system.cpu0.iq.fu_full::SimdCvt                     0      0.00%     20.49% # attempts to use FU when none available
system.cpu0.iq.fu_full::SimdMisc                    0      0.00%     20.49% # attempts to use FU when none available
system.cpu0.iq.fu_full::SimdMult                    0      0.00%     20.49% # attempts to use FU when none available
system.cpu0.iq.fu_full::SimdMultAcc                 0      0.00%     20.49% # attempts to use FU when none available
system.cpu0.iq.fu_full::SimdShift                   0      0.00%     20.49% # attempts to use FU when none available
system.cpu0.iq.fu_full::SimdShiftAcc                0      0.00%     20.49% # attempts to use FU when none available
system.cpu0.iq.fu_full::SimdDiv                     0      0.00%     20.49% # attempts to use FU when none available
system.cpu0.iq.fu_full::SimdSqrt                    0      0.00%     20.49% # attempts to use FU when none available
system.cpu0.iq.fu_full::SimdFloatAdd                0      0.00%     20.49% # attempts to use FU when none available
system.cpu0.iq.fu_full::SimdFloatAlu                0      0.00%     20.49% # attempts to use FU when none available
system.cpu0.iq.fu_full::SimdFloatCmp                0      0.00%     20.49% # attempts to use FU when none available
system.cpu0.iq.fu_full::SimdFloatCvt                0      0.00%     20.49% # attempts to use FU when none available
system.cpu0.iq.fu_full::SimdFloatDiv                0      0.00%     20.49% # attempts to use FU when none available
system.cpu0.iq.fu_full::SimdFloatMisc               0      0.00%     20.49% # attempts to use FU when none available
system.cpu0.iq.fu_full::SimdFloatMult               0      0.00%     20.49% # attempts to use FU when none available
system.cpu0.iq.fu_full::SimdFloatMultAcc            0      0.00%     20.49% # attempts to use FU when none available
system.cpu0.iq.fu_full::SimdFloatSqrt               0      0.00%     20.49% # attempts to use FU when none available
system.cpu0.iq.fu_full::SimdReduceAdd               0      0.00%     20.49% # attempts to use FU when none available
system.cpu0.iq.fu_full::SimdReduceAlu               0      0.00%     20.49% # attempts to use FU when none available
system.cpu0.iq.fu_full::SimdReduceCmp               0      0.00%     20.49% # attempts to use FU when none available
system.cpu0.iq.fu_full::SimdFloatReduceAdd            0      0.00%     20.49% # attempts to use FU when none available
system.cpu0.iq.fu_full::SimdFloatReduceCmp            0      0.00%     20.49% # attempts to use FU when none available
system.cpu0.iq.fu_full::SimdAes                     0      0.00%     20.49% # attempts to use FU when none available
system.cpu0.iq.fu_full::SimdAesMix                  0      0.00%     20.49% # attempts to use FU when none available
system.cpu0.iq.fu_full::SimdSha1Hash                0      0.00%     20.49% # attempts to use FU when none available
system.cpu0.iq.fu_full::SimdSha1Hash2               0      0.00%     20.49% # attempts to use FU when none available
system.cpu0.iq.fu_full::SimdSha256Hash              0      0.00%     20.49% # attempts to use FU when none available
system.cpu0.iq.fu_full::SimdSha256Hash2             0      0.00%     20.49% # attempts to use FU when none available
system.cpu0.iq.fu_full::SimdShaSigma2               0      0.00%     20.49% # attempts to use FU when none available
system.cpu0.iq.fu_full::SimdShaSigma3               0      0.00%     20.49% # attempts to use FU when none available
system.cpu0.iq.fu_full::SimdPredAlu                 0      0.00%     20.49% # attempts to use FU when none available
system.cpu0.iq.fu_full::MemRead                969221     71.98%     92.47% # attempts to use FU when none available
system.cpu0.iq.fu_full::MemWrite               101373      7.53%    100.00% # attempts to use FU when none available
system.cpu0.iq.fu_full::FloatMemRead                0      0.00%    100.00% # attempts to use FU when none available
system.cpu0.iq.fu_full::FloatMemWrite               2      0.00%    100.00% # attempts to use FU when none available
system.cpu0.iq.fu_full::IprAccess                   0      0.00%    100.00% # attempts to use FU when none available
system.cpu0.iq.fu_full::InstPrefetch                0      0.00%    100.00% # attempts to use FU when none available
system.cpu0.iq.int_alu_accesses             616139413                       # Number of integer alu accesses
system.cpu0.iq.int_inst_queue_reads        2323074272                       # Number of integer instruction queue reads
system.cpu0.iq.int_inst_queue_wakeup_accesses    605376106                       # Number of integer instruction queue wakeup accesses
system.cpu0.iq.int_inst_queue_writes        660302164                       # Number of integer instruction queue writes
system.cpu0.iq.iqInstsAdded                 617740191                       # Number of instructions added to the IQ (excludes non-spec)
system.cpu0.iq.iqInstsIssued                616831485                       # Number of instructions issued
system.cpu0.iq.iqNonSpecInstsAdded            3058852                       # Number of non-speculative instructions added to the IQ
system.cpu0.iq.iqSquashedInstsExamined       39496109                       # Number of squashed instructions iterated over during squash; mainly for profiling
system.cpu0.iq.iqSquashedInstsIssued            94523                       # Number of squashed instructions issued
system.cpu0.iq.iqSquashedNonSpecRemoved           367                       # Number of squashed non-spec instructions that were removed
system.cpu0.iq.iqSquashedOperandsExamined     16964395                       # Number of squashed operands that are examined and possibly removed from graph
system.cpu0.iq.issued_per_cycle::samples   1087970425                       # Number of insts issued each cycle
system.cpu0.iq.issued_per_cycle::mean        0.566956                       # Number of insts issued each cycle
system.cpu0.iq.issued_per_cycle::stdev       0.801544                       # Number of insts issued each cycle
system.cpu0.iq.issued_per_cycle::underflows            0      0.00%      0.00% # Number of insts issued each cycle
system.cpu0.iq.issued_per_cycle::0          640067102     58.83%     58.83% # Number of insts issued each cycle
system.cpu0.iq.issued_per_cycle::1          312263546     28.70%     87.53% # Number of insts issued each cycle
system.cpu0.iq.issued_per_cycle::2          111433417     10.24%     97.78% # Number of insts issued each cycle
system.cpu0.iq.issued_per_cycle::3           18303489      1.68%     99.46% # Number of insts issued each cycle
system.cpu0.iq.issued_per_cycle::4            3787085      0.35%     99.81% # Number of insts issued each cycle
system.cpu0.iq.issued_per_cycle::5            1357778      0.12%     99.93% # Number of insts issued each cycle
system.cpu0.iq.issued_per_cycle::6             544343      0.05%     99.98% # Number of insts issued each cycle
system.cpu0.iq.issued_per_cycle::7             121970      0.01%     99.99% # Number of insts issued each cycle
system.cpu0.iq.issued_per_cycle::8              91695      0.01%    100.00% # Number of insts issued each cycle
system.cpu0.iq.issued_per_cycle::overflows            0      0.00%    100.00% # Number of insts issued each cycle
system.cpu0.iq.issued_per_cycle::min_value            0                       # Number of insts issued each cycle
system.cpu0.iq.issued_per_cycle::max_value            8                       # Number of insts issued each cycle
system.cpu0.iq.issued_per_cycle::total     1087970425                       # Number of insts issued each cycle
system.cpu0.iq.rate                          0.528377                       # Inst issue rate
system.cpu0.iq.vec_alu_accesses                     0                       # Number of vector alu accesses
system.cpu0.iq.vec_inst_queue_reads                 0                       # Number of vector instruction queue reads
system.cpu0.iq.vec_inst_queue_wakeup_accesses            0                       # Number of vector instruction queue wakeup accesses
system.cpu0.iq.vec_inst_queue_writes                0                       # Number of vector instruction queue writes
system.cpu0.itb.accesses                            0                       # DTB accesses
system.cpu0.itb.hits                                0                       # DTB hits
system.cpu0.itb.misses                              0                       # DTB misses
system.cpu0.itb.read_accesses                       0                       # DTB read accesses
system.cpu0.itb.read_hits                           0                       # DTB read hits
system.cpu0.itb.read_misses                         0                       # DTB read misses
system.cpu0.itb.write_accesses                      0                       # DTB write accesses
system.cpu0.itb.write_hits                          0                       # DTB write hits
system.cpu0.itb.write_misses                        0                       # DTB write misses
system.cpu0.memDep0.conflictingLoads         10316893                       # Number of conflicting loads.
system.cpu0.memDep0.conflictingStores         1976047                       # Number of conflicting stores.
system.cpu0.memDep0.insertedLoads           194878122                       # Number of loads inserted to the mem dependence unit.
system.cpu0.memDep0.insertedStores           76731112                       # Number of stores inserted to the mem dependence unit.
system.cpu0.misc_regfile_reads                    880                       # number of misc regfile reads
system.cpu0.misc_regfile_writes                    22                       # number of misc regfile writes
system.cpu0.numCycles                      1167408315                       # number of cpu cycles simulated
system.cpu0.numWorkItemsCompleted                   0                       # number of work items this cpu completed
system.cpu0.numWorkItemsStarted                     0                       # number of work items this cpu started
system.cpu0.quiesceCycles                    11506572                       # Total number of cycles that CPU has spent quiesced or waiting for an interrupt
system.cpu0.rename.BlockCycles              168273635                       # Number of cycles rename is blocking
system.cpu0.rename.CommittedMaps            370566458                       # Number of HB maps that are committed
system.cpu0.rename.IQFullEvents               7236700                       # Number of times rename has blocked due to IQ full
system.cpu0.rename.IdleCycles               453152618                       # Number of cycles rename is idle
system.cpu0.rename.LQFullEvents               9601888                       # Number of times rename has blocked due to LQ full
system.cpu0.rename.ROBFullEvents                17151                       # Number of times rename has blocked due to ROB full
system.cpu0.rename.RenameLookups            767849825                       # Number of register rename lookups that rename has made
system.cpu0.rename.RenamedInsts             628439378                       # Number of instructions processed by rename
system.cpu0.rename.RenamedOperands          403465251                       # Number of destination operands rename has renamed
system.cpu0.rename.RunCycles                433595506                       # Number of cycles rename is running
system.cpu0.rename.SQFullEvents              10862270                       # Number of times rename has blocked due to SQ full
system.cpu0.rename.SquashCycles               5009735                       # Number of cycles rename is squashing
system.cpu0.rename.UnblockCycles             27843258                       # Number of cycles rename is unblocking
system.cpu0.rename.UndoneMaps                32898785                       # Number of HB maps that are undone due to squashing
system.cpu0.rename.fp_rename_lookups               40                       # Number of floating rename lookups
system.cpu0.rename.int_rename_lookups       767849785                       # Number of integer rename lookups
system.cpu0.rename.serializeStallCycles         95673                       # count of cycles rename stalled for serializing inst
system.cpu0.rename.serializingInsts              2815                       # count of serializing insts renamed
system.cpu0.rename.skidInsts                 15159039                       # count of insts added to the skid buffer
system.cpu0.rename.tempSerializingInsts          2812                       # count of temporary serializing insts renamed
system.cpu0.rob.rob_reads                  1684245685                       # The number of ROB reads
system.cpu0.rob.rob_writes                 1249606975                       # The number of ROB writes
system.cpu0.timesIdled                       14492536                       # Number of times that the entire CPU went into an idle state and unscheduled itself
system.cpu0.workload.numSyscalls                  847                       # Number of system calls
system.cpu1.branchPred.BTBCorrect                   0                       # Number of correct BTB predictions (this stat may not work properly.
system.cpu1.branchPred.BTBHitPct            74.411757                       # BTB Hit Percentage
system.cpu1.branchPred.BTBHits                4541133                       # Number of BTB hits
system.cpu1.branchPred.BTBLookups             6102709                       # Number of BTB lookups
system.cpu1.branchPred.RASInCorrect                 0                       # Number of incorrect RAS predictions.
system.cpu1.branchPred.condIncorrect           800258                       # Number of conditional branches incorrect
system.cpu1.branchPred.condPredicted          7856022                       # Number of conditional branches predicted
system.cpu1.branchPred.indirectHits            215497                       # Number of indirect target hits.
system.cpu1.branchPred.indirectLookups         364478                       # Number of indirect predictor lookups.
system.cpu1.branchPred.indirectMisses          148981                       # Number of indirect misses.
system.cpu1.branchPred.lookups                8784730                       # Number of BP lookups
system.cpu1.branchPred.usedRAS                      0                       # Number of times the RAS was used to get a target.
system.cpu1.branchPredindirectMispredicted         3204                       # Number of mispredicted indirect branches.
system.cpu1.commit.amos                       1017923                       # Number of atomic instructions committed
system.cpu1.commit.branchMispredicts           475347                       # The number of times a branch was mispredicted
system.cpu1.commit.branches                   7095774                       # Number of branches committed
system.cpu1.commit.bw_lim_events               842589                       # number cycles where commit BW limit reached
system.cpu1.commit.commitNonSpecStalls        3054423                       # The number of times commit has been forced to stall to communicate backwards
system.cpu1.commit.commitSquashedInsts        4740626                       # The number of squashed insts skipped by commit
system.cpu1.commit.committedInsts            32264489                       # Number of instructions committed
system.cpu1.commit.committedOps              33282586                       # Number of ops (including micro ops) committed
system.cpu1.commit.committed_per_cycle::samples    197533780                       # Number of insts commited each cycle
system.cpu1.commit.committed_per_cycle::mean     0.168491                       # Number of insts commited each cycle
system.cpu1.commit.committed_per_cycle::stdev     0.818088                       # Number of insts commited each cycle
system.cpu1.commit.committed_per_cycle::underflows            0      0.00%      0.00% # Number of insts commited each cycle
system.cpu1.commit.committed_per_cycle::0    183781407     93.04%     93.04% # Number of insts commited each cycle
system.cpu1.commit.committed_per_cycle::1      6929241      3.51%     96.55% # Number of insts commited each cycle
system.cpu1.commit.committed_per_cycle::2      2290066      1.16%     97.71% # Number of insts commited each cycle
system.cpu1.commit.committed_per_cycle::3      1999898      1.01%     98.72% # Number of insts commited each cycle
system.cpu1.commit.committed_per_cycle::4       509729      0.26%     98.98% # Number of insts commited each cycle
system.cpu1.commit.committed_per_cycle::5       158066      0.08%     99.06% # Number of insts commited each cycle
system.cpu1.commit.committed_per_cycle::6       955927      0.48%     99.54% # Number of insts commited each cycle
system.cpu1.commit.committed_per_cycle::7        66857      0.03%     99.57% # Number of insts commited each cycle
system.cpu1.commit.committed_per_cycle::8       842589      0.43%    100.00% # Number of insts commited each cycle
system.cpu1.commit.committed_per_cycle::overflows            0      0.00%    100.00% # Number of insts commited each cycle
system.cpu1.commit.committed_per_cycle::min_value            0                       # Number of insts commited each cycle
system.cpu1.commit.committed_per_cycle::max_value            8                       # Number of insts commited each cycle
system.cpu1.commit.committed_per_cycle::total    197533780                       # Number of insts commited each cycle
system.cpu1.commit.fp_insts                        12                       # Number of committed floating point instructions.
system.cpu1.commit.function_calls              320852                       # Number of function calls committed.
system.cpu1.commit.int_insts                 31049342                       # Number of committed integer instructions.
system.cpu1.commit.loads                      9248914                       # Number of loads committed
system.cpu1.commit.membars                    2035967                       # Number of memory barriers committed
system.cpu1.commit.op_class_0::No_OpClass      2035967      6.12%      6.12% # Class of committed instruction
system.cpu1.commit.op_class_0::IntAlu        19083508     57.34%     63.46% # Class of committed instruction
system.cpu1.commit.op_class_0::IntMult             42      0.00%     63.46% # Class of committed instruction
system.cpu1.commit.op_class_0::IntDiv              84      0.00%     63.46% # Class of committed instruction
system.cpu1.commit.op_class_0::FloatAdd             0      0.00%     63.46% # Class of committed instruction
system.cpu1.commit.op_class_0::FloatCmp             0      0.00%     63.46% # Class of committed instruction
system.cpu1.commit.op_class_0::FloatCvt             0      0.00%     63.46% # Class of committed instruction
system.cpu1.commit.op_class_0::FloatMult            0      0.00%     63.46% # Class of committed instruction
system.cpu1.commit.op_class_0::FloatMultAcc            0      0.00%     63.46% # Class of committed instruction
system.cpu1.commit.op_class_0::FloatDiv             0      0.00%     63.46% # Class of committed instruction
system.cpu1.commit.op_class_0::FloatMisc            0      0.00%     63.46% # Class of committed instruction
system.cpu1.commit.op_class_0::FloatSqrt            0      0.00%     63.46% # Class of committed instruction
system.cpu1.commit.op_class_0::SimdAdd              0      0.00%     63.46% # Class of committed instruction
system.cpu1.commit.op_class_0::SimdAddAcc            0      0.00%     63.46% # Class of committed instruction
system.cpu1.commit.op_class_0::SimdAlu              0      0.00%     63.46% # Class of committed instruction
system.cpu1.commit.op_class_0::SimdCmp              0      0.00%     63.46% # Class of committed instruction
system.cpu1.commit.op_class_0::SimdCvt              0      0.00%     63.46% # Class of committed instruction
system.cpu1.commit.op_class_0::SimdMisc             0      0.00%     63.46% # Class of committed instruction
system.cpu1.commit.op_class_0::SimdMult             0      0.00%     63.46% # Class of committed instruction
system.cpu1.commit.op_class_0::SimdMultAcc            0      0.00%     63.46% # Class of committed instruction
system.cpu1.commit.op_class_0::SimdShift            0      0.00%     63.46% # Class of committed instruction
system.cpu1.commit.op_class_0::SimdShiftAcc            0      0.00%     63.46% # Class of committed instruction
system.cpu1.commit.op_class_0::SimdDiv              0      0.00%     63.46% # Class of committed instruction
system.cpu1.commit.op_class_0::SimdSqrt             0      0.00%     63.46% # Class of committed instruction
system.cpu1.commit.op_class_0::SimdFloatAdd            0      0.00%     63.46% # Class of committed instruction
system.cpu1.commit.op_class_0::SimdFloatAlu            0      0.00%     63.46% # Class of committed instruction
system.cpu1.commit.op_class_0::SimdFloatCmp            0      0.00%     63.46% # Class of committed instruction
system.cpu1.commit.op_class_0::SimdFloatCvt            0      0.00%     63.46% # Class of committed instruction
system.cpu1.commit.op_class_0::SimdFloatDiv            0      0.00%     63.46% # Class of committed instruction
system.cpu1.commit.op_class_0::SimdFloatMisc            0      0.00%     63.46% # Class of committed instruction
system.cpu1.commit.op_class_0::SimdFloatMult            0      0.00%     63.46% # Class of committed instruction
system.cpu1.commit.op_class_0::SimdFloatMultAcc            0      0.00%     63.46% # Class of committed instruction
system.cpu1.commit.op_class_0::SimdFloatSqrt            0      0.00%     63.46% # Class of committed instruction
system.cpu1.commit.op_class_0::SimdReduceAdd            0      0.00%     63.46% # Class of committed instruction
system.cpu1.commit.op_class_0::SimdReduceAlu            0      0.00%     63.46% # Class of committed instruction
system.cpu1.commit.op_class_0::SimdReduceCmp            0      0.00%     63.46% # Class of committed instruction
system.cpu1.commit.op_class_0::SimdFloatReduceAdd            0      0.00%     63.46% # Class of committed instruction
system.cpu1.commit.op_class_0::SimdFloatReduceCmp            0      0.00%     63.46% # Class of committed instruction
system.cpu1.commit.op_class_0::SimdAes              0      0.00%     63.46% # Class of committed instruction
system.cpu1.commit.op_class_0::SimdAesMix            0      0.00%     63.46% # Class of committed instruction
system.cpu1.commit.op_class_0::SimdSha1Hash            0      0.00%     63.46% # Class of committed instruction
system.cpu1.commit.op_class_0::SimdSha1Hash2            0      0.00%     63.46% # Class of committed instruction
system.cpu1.commit.op_class_0::SimdSha256Hash            0      0.00%     63.46% # Class of committed instruction
system.cpu1.commit.op_class_0::SimdSha256Hash2            0      0.00%     63.46% # Class of committed instruction
system.cpu1.commit.op_class_0::SimdShaSigma2            0      0.00%     63.46% # Class of committed instruction
system.cpu1.commit.op_class_0::SimdShaSigma3            0      0.00%     63.46% # Class of committed instruction
system.cpu1.commit.op_class_0::SimdPredAlu            0      0.00%     63.46% # Class of committed instruction
system.cpu1.commit.op_class_0::MemRead       10266837     30.85%     94.30% # Class of committed instruction
system.cpu1.commit.op_class_0::MemWrite       1896136      5.70%    100.00% # Class of committed instruction
system.cpu1.commit.op_class_0::FloatMemRead            0      0.00%    100.00% # Class of committed instruction
system.cpu1.commit.op_class_0::FloatMemWrite           12      0.00%    100.00% # Class of committed instruction
system.cpu1.commit.op_class_0::IprAccess            0      0.00%    100.00% # Class of committed instruction
system.cpu1.commit.op_class_0::InstPrefetch            0      0.00%    100.00% # Class of committed instruction
system.cpu1.commit.op_class_0::total         33282586                       # Class of committed instruction
system.cpu1.commit.refs                      12162985                       # Number of memory references committed
system.cpu1.commit.swp_count                        0                       # Number of s/w prefetches committed
system.cpu1.commit.vec_insts                        0                       # Number of committed Vector instructions.
system.cpu1.committedInsts                   32264489                       # Number of Instructions Simulated
system.cpu1.committedOps                     33282586                       # Number of Ops (including micro ops) Simulated
system.cpu1.cpi                              6.154628                       # CPI: Cycles Per Instruction
system.cpu1.cpi_total                        6.154628                       # CPI: Total CPI of All Threads
system.cpu1.decode.BlockedCycles            178040950                       # Number of cycles decode is blocked
system.cpu1.decode.BranchMispred               328594                       # Number of times decode detected a branch misprediction
system.cpu1.decode.BranchResolved             4363100                       # Number of times decode resolved a branch
system.cpu1.decode.DecodedInsts              39917114                       # Number of instructions handled by decode
system.cpu1.decode.IdleCycles                 5132568                       # Number of cycles decode is idle
system.cpu1.decode.RunCycles                 12387970                       # Number of cycles decode is running
system.cpu1.decode.SquashCycles                475549                       # Number of cycles decode is squashing
system.cpu1.decode.SquashedInsts               590891                       # Number of squashed instructions handled by decode
system.cpu1.decode.UnblockCycles              2337302                       # Number of cycles decode is unblocking
system.cpu1.dtb.accesses                            0                       # DTB accesses
system.cpu1.dtb.hits                                0                       # DTB hits
system.cpu1.dtb.misses                              0                       # DTB misses
system.cpu1.dtb.read_accesses                       0                       # DTB read accesses
system.cpu1.dtb.read_hits                           0                       # DTB read hits
system.cpu1.dtb.read_misses                         0                       # DTB read misses
system.cpu1.dtb.write_accesses                      0                       # DTB write accesses
system.cpu1.dtb.write_hits                          0                       # DTB write hits
system.cpu1.dtb.write_misses                        0                       # DTB write misses
system.cpu1.fetch.Branches                    8784730                       # Number of branches that fetch encountered
system.cpu1.fetch.CacheLines                  5177093                       # Number of cache lines fetched
system.cpu1.fetch.Cycles                    191948867                       # Number of cycles fetch has run and was not squashing or blocked
system.cpu1.fetch.IcacheSquashes                49960                       # Number of outstanding Icache misses that were squashed
system.cpu1.fetch.Insts                      40823790                       # Number of instructions fetch has processed
system.cpu1.fetch.MiscStallCycles                   1                       # Number of cycles fetch has spent waiting on interrupts, or bad addresses, or out of MSHRs
system.cpu1.fetch.SquashCycles                1600920                       # Number of cycles fetch has spent squashing
system.cpu1.fetch.branchRate                 0.044239                       # Number of branch fetches per cycle
system.cpu1.fetch.icacheStallCycles           5625011                       # Number of cycles fetch is stalled on an Icache miss
system.cpu1.fetch.predictedBranches           4756630                       # Number of branches that fetch has predicted taken
system.cpu1.fetch.rate                       0.205583                       # Number of inst fetches per cycle
system.cpu1.fetch.rateDist::samples         198374339                       # Number of instructions fetched each cycle (Total)
system.cpu1.fetch.rateDist::mean             0.210925                       # Number of instructions fetched each cycle (Total)
system.cpu1.fetch.rateDist::stdev            0.640984                       # Number of instructions fetched each cycle (Total)
system.cpu1.fetch.rateDist::underflows              0      0.00%      0.00% # Number of instructions fetched each cycle (Total)
system.cpu1.fetch.rateDist::0               173094918     87.26%     87.26% # Number of instructions fetched each cycle (Total)
system.cpu1.fetch.rateDist::1                14664372      7.39%     94.65% # Number of instructions fetched each cycle (Total)
system.cpu1.fetch.rateDist::2                 6250308      3.15%     97.80% # Number of instructions fetched each cycle (Total)
system.cpu1.fetch.rateDist::3                 2927610      1.48%     99.28% # Number of instructions fetched each cycle (Total)
system.cpu1.fetch.rateDist::4                 1295127      0.65%     99.93% # Number of instructions fetched each cycle (Total)
system.cpu1.fetch.rateDist::5                  138683      0.07%    100.00% # Number of instructions fetched each cycle (Total)
system.cpu1.fetch.rateDist::6                    3046      0.00%    100.00% # Number of instructions fetched each cycle (Total)
system.cpu1.fetch.rateDist::7                      52      0.00%    100.00% # Number of instructions fetched each cycle (Total)
system.cpu1.fetch.rateDist::8                     223      0.00%    100.00% # Number of instructions fetched each cycle (Total)
system.cpu1.fetch.rateDist::overflows               0      0.00%    100.00% # Number of instructions fetched each cycle (Total)
system.cpu1.fetch.rateDist::min_value               0                       # Number of instructions fetched each cycle (Total)
system.cpu1.fetch.rateDist::max_value               8                       # Number of instructions fetched each cycle (Total)
system.cpu1.fetch.rateDist::total           198374339                       # Number of instructions fetched each cycle (Total)
system.cpu1.fp_regfile_reads                       12                       # number of floating regfile reads
system.cpu1.idleCycles                         201601                       # Total number of cycles that the CPU has spent unscheduled due to idling
system.cpu1.iew.branchMispredicts              506602                       # Number of branch mispredicts detected at execute
system.cpu1.iew.exec_branches                 7703252                       # Number of branches executed
system.cpu1.iew.exec_nop                            0                       # number of nop insts executed
system.cpu1.iew.exec_rate                    0.183466                       # Inst execution rate
system.cpu1.iew.exec_refs                    13087604                       # number of memory reference insts executed
system.cpu1.iew.exec_stores                   2947609                       # Number of stores executed
system.cpu1.iew.exec_swp                            0                       # number of swp insts executed
system.cpu1.iew.iewBlockCycles              152338454                       # Number of cycles IEW is blocking
system.cpu1.iew.iewDispLoadInsts             10309393                       # Number of dispatched load instructions
system.cpu1.iew.iewDispNonSpecInsts           1018542                       # Number of dispatched non-speculative instructions
system.cpu1.iew.iewDispSquashedInsts           316474                       # Number of squashed instructions skipped by dispatch
system.cpu1.iew.iewDispStoreInsts             2982919                       # Number of dispatched store instructions
system.cpu1.iew.iewDispatchedInsts           38016049                       # Number of instructions dispatched to IQ
system.cpu1.iew.iewExecLoadInsts             10139995                       # Number of load instructions executed
system.cpu1.iew.iewExecSquashedInsts           567757                       # Number of squashed instructions skipped in execute
system.cpu1.iew.iewExecutedInsts             36431944                       # Number of executed instructions
system.cpu1.iew.iewIQFullEvents                761908                       # Number of times the IQ has become full, causing a stall
system.cpu1.iew.iewIdleCycles                       0                       # Number of cycles IEW is idle
system.cpu1.iew.iewLSQFullEvents              1690993                       # Number of times the LSQ has become full, causing a stall
system.cpu1.iew.iewSquashCycles                475549                       # Number of cycles IEW is squashing
system.cpu1.iew.iewUnblockCycles              3675518                       # Number of cycles IEW is unblocking
system.cpu1.iew.lsq.thread0.blockedLoads            0                       # Number of blocked loads due to partial load-store forwarding
system.cpu1.iew.lsq.thread0.cacheBlocked        32894                       # Number of times an access to memory failed due to the cache being blocked
system.cpu1.iew.lsq.thread0.forwLoads          164597                       # Number of loads that had data forwarded from stores
system.cpu1.iew.lsq.thread0.ignoredResponses         5058                       # Number of memory responses ignored because the instruction is squashed
system.cpu1.iew.lsq.thread0.invAddrLoads            0                       # Number of loads ignored due to an invalid address
system.cpu1.iew.lsq.thread0.invAddrSwpfs            0                       # Number of software prefetches ignored due to an invalid address
system.cpu1.iew.lsq.thread0.memOrderViolation          178                       # Number of memory ordering violations
system.cpu1.iew.lsq.thread0.rescheduledLoads          498                       # Number of loads that were rescheduled
system.cpu1.iew.lsq.thread0.squashedLoads      1060479                       # Number of loads squashed
system.cpu1.iew.lsq.thread0.squashedStores        68848                       # Number of stores squashed
system.cpu1.iew.memOrderViolationEvents           178                       # Number of memory order violations
system.cpu1.iew.predictedNotTakenIncorrect        92386                       # Number of branches that were predicted not taken incorrectly
system.cpu1.iew.predictedTakenIncorrect        414216                       # Number of branches that were predicted taken incorrectly
system.cpu1.iew.wb_consumers                 21487872                       # num instructions consuming a value
system.cpu1.iew.wb_count                     36056530                       # cumulative count of insts written-back
system.cpu1.iew.wb_fanout                    0.866177                       # average fanout of values written-back
system.cpu1.iew.wb_producers                 18612291                       # num instructions producing a value
system.cpu1.iew.wb_rate                      0.181576                       # insts written-back per cycle
system.cpu1.iew.wb_sent                      36065178                       # cumulative count of insts sent to commit
system.cpu1.int_regfile_reads                44773438                       # number of integer regfile reads
system.cpu1.int_regfile_writes               24588204                       # number of integer regfile writes
system.cpu1.ipc                              0.162479                       # IPC: Instructions Per Cycle
system.cpu1.ipc_total                        0.162479                       # IPC: Total IPC of All Threads
system.cpu1.iq.FU_type_0::No_OpClass          2036067      5.50%      5.50% # Type of FU issued
system.cpu1.iq.FU_type_0::IntAlu             21798624     58.92%     64.42% # Type of FU issued
system.cpu1.iq.FU_type_0::IntMult                  45      0.00%     64.42% # Type of FU issued
system.cpu1.iq.FU_type_0::IntDiv                   84      0.00%     64.42% # Type of FU issued
system.cpu1.iq.FU_type_0::FloatAdd                  0      0.00%     64.42% # Type of FU issued
system.cpu1.iq.FU_type_0::FloatCmp                  0      0.00%     64.42% # Type of FU issued
system.cpu1.iq.FU_type_0::FloatCvt                  0      0.00%     64.42% # Type of FU issued
system.cpu1.iq.FU_type_0::FloatMult                 0      0.00%     64.42% # Type of FU issued
system.cpu1.iq.FU_type_0::FloatMultAcc              0      0.00%     64.42% # Type of FU issued
system.cpu1.iq.FU_type_0::FloatDiv                  0      0.00%     64.42% # Type of FU issued
system.cpu1.iq.FU_type_0::FloatMisc                 0      0.00%     64.42% # Type of FU issued
system.cpu1.iq.FU_type_0::FloatSqrt                 0      0.00%     64.42% # Type of FU issued
system.cpu1.iq.FU_type_0::SimdAdd                   0      0.00%     64.42% # Type of FU issued
system.cpu1.iq.FU_type_0::SimdAddAcc                0      0.00%     64.42% # Type of FU issued
system.cpu1.iq.FU_type_0::SimdAlu                   0      0.00%     64.42% # Type of FU issued
system.cpu1.iq.FU_type_0::SimdCmp                   0      0.00%     64.42% # Type of FU issued
system.cpu1.iq.FU_type_0::SimdCvt                   0      0.00%     64.42% # Type of FU issued
system.cpu1.iq.FU_type_0::SimdMisc                  0      0.00%     64.42% # Type of FU issued
system.cpu1.iq.FU_type_0::SimdMult                  0      0.00%     64.42% # Type of FU issued
system.cpu1.iq.FU_type_0::SimdMultAcc               0      0.00%     64.42% # Type of FU issued
system.cpu1.iq.FU_type_0::SimdShift                 0      0.00%     64.42% # Type of FU issued
system.cpu1.iq.FU_type_0::SimdShiftAcc              0      0.00%     64.42% # Type of FU issued
system.cpu1.iq.FU_type_0::SimdDiv                   0      0.00%     64.42% # Type of FU issued
system.cpu1.iq.FU_type_0::SimdSqrt                  0      0.00%     64.42% # Type of FU issued
system.cpu1.iq.FU_type_0::SimdFloatAdd              0      0.00%     64.42% # Type of FU issued
system.cpu1.iq.FU_type_0::SimdFloatAlu              0      0.00%     64.42% # Type of FU issued
system.cpu1.iq.FU_type_0::SimdFloatCmp              0      0.00%     64.42% # Type of FU issued
system.cpu1.iq.FU_type_0::SimdFloatCvt              0      0.00%     64.42% # Type of FU issued
system.cpu1.iq.FU_type_0::SimdFloatDiv              0      0.00%     64.42% # Type of FU issued
system.cpu1.iq.FU_type_0::SimdFloatMisc             0      0.00%     64.42% # Type of FU issued
system.cpu1.iq.FU_type_0::SimdFloatMult             0      0.00%     64.42% # Type of FU issued
system.cpu1.iq.FU_type_0::SimdFloatMultAcc            0      0.00%     64.42% # Type of FU issued
system.cpu1.iq.FU_type_0::SimdFloatSqrt             0      0.00%     64.42% # Type of FU issued
system.cpu1.iq.FU_type_0::SimdReduceAdd             0      0.00%     64.42% # Type of FU issued
system.cpu1.iq.FU_type_0::SimdReduceAlu             0      0.00%     64.42% # Type of FU issued
system.cpu1.iq.FU_type_0::SimdReduceCmp             0      0.00%     64.42% # Type of FU issued
system.cpu1.iq.FU_type_0::SimdFloatReduceAdd            0      0.00%     64.42% # Type of FU issued
system.cpu1.iq.FU_type_0::SimdFloatReduceCmp            0      0.00%     64.42% # Type of FU issued
system.cpu1.iq.FU_type_0::SimdAes                   0      0.00%     64.42% # Type of FU issued
system.cpu1.iq.FU_type_0::SimdAesMix                0      0.00%     64.42% # Type of FU issued
system.cpu1.iq.FU_type_0::SimdSha1Hash              0      0.00%     64.42% # Type of FU issued
system.cpu1.iq.FU_type_0::SimdSha1Hash2             0      0.00%     64.42% # Type of FU issued
system.cpu1.iq.FU_type_0::SimdSha256Hash            0      0.00%     64.42% # Type of FU issued
system.cpu1.iq.FU_type_0::SimdSha256Hash2            0      0.00%     64.42% # Type of FU issued
system.cpu1.iq.FU_type_0::SimdShaSigma2             0      0.00%     64.42% # Type of FU issued
system.cpu1.iq.FU_type_0::SimdShaSigma3             0      0.00%     64.42% # Type of FU issued
system.cpu1.iq.FU_type_0::SimdPredAlu               0      0.00%     64.42% # Type of FU issued
system.cpu1.iq.FU_type_0::MemRead            11226542     30.34%     94.76% # Type of FU issued
system.cpu1.iq.FU_type_0::MemWrite            1938327      5.24%    100.00% # Type of FU issued
system.cpu1.iq.FU_type_0::FloatMemRead              0      0.00%    100.00% # Type of FU issued
system.cpu1.iq.FU_type_0::FloatMemWrite            12      0.00%    100.00% # Type of FU issued
system.cpu1.iq.FU_type_0::IprAccess                 0      0.00%    100.00% # Type of FU issued
system.cpu1.iq.FU_type_0::InstPrefetch              0      0.00%    100.00% # Type of FU issued
system.cpu1.iq.FU_type_0::total              36999701                       # Type of FU issued
system.cpu1.iq.fp_alu_accesses                     14                       # Number of floating point alu accesses
system.cpu1.iq.fp_inst_queue_reads                 26                       # Number of floating instruction queue reads
system.cpu1.iq.fp_inst_queue_wakeup_accesses           12                       # Number of floating instruction queue wakeup accesses
system.cpu1.iq.fp_inst_queue_writes                12                       # Number of floating instruction queue writes
system.cpu1.iq.fu_busy_cnt                    1160575                       # FU busy when requested
system.cpu1.iq.fu_busy_rate                  0.031367                       # FU busy rate (busy events/executed inst)
system.cpu1.iq.fu_full::No_OpClass                  0      0.00%      0.00% # attempts to use FU when none available
system.cpu1.iq.fu_full::IntAlu                 233707     20.14%     20.14% # attempts to use FU when none available
system.cpu1.iq.fu_full::IntMult                     0      0.00%     20.14% # attempts to use FU when none available
system.cpu1.iq.fu_full::IntDiv                      0      0.00%     20.14% # attempts to use FU when none available
system.cpu1.iq.fu_full::FloatAdd                    0      0.00%     20.14% # attempts to use FU when none available
system.cpu1.iq.fu_full::FloatCmp                    0      0.00%     20.14% # attempts to use FU when none available
system.cpu1.iq.fu_full::FloatCvt                    0      0.00%     20.14% # attempts to use FU when none available
system.cpu1.iq.fu_full::FloatMult                   0      0.00%     20.14% # attempts to use FU when none available
system.cpu1.iq.fu_full::FloatMultAcc                0      0.00%     20.14% # attempts to use FU when none available
system.cpu1.iq.fu_full::FloatDiv                    0      0.00%     20.14% # attempts to use FU when none available
system.cpu1.iq.fu_full::FloatMisc                   0      0.00%     20.14% # attempts to use FU when none available
system.cpu1.iq.fu_full::FloatSqrt                   0      0.00%     20.14% # attempts to use FU when none available
system.cpu1.iq.fu_full::SimdAdd                     0      0.00%     20.14% # attempts to use FU when none available
system.cpu1.iq.fu_full::SimdAddAcc                  0      0.00%     20.14% # attempts to use FU when none available
system.cpu1.iq.fu_full::SimdAlu                     0      0.00%     20.14% # attempts to use FU when none available
system.cpu1.iq.fu_full::SimdCmp                     0      0.00%     20.14% # attempts to use FU when none available
system.cpu1.iq.fu_full::SimdCvt                     0      0.00%     20.14% # attempts to use FU when none available
system.cpu1.iq.fu_full::SimdMisc                    0      0.00%     20.14% # attempts to use FU when none available
system.cpu1.iq.fu_full::SimdMult                    0      0.00%     20.14% # attempts to use FU when none available
system.cpu1.iq.fu_full::SimdMultAcc                 0      0.00%     20.14% # attempts to use FU when none available
system.cpu1.iq.fu_full::SimdShift                   0      0.00%     20.14% # attempts to use FU when none available
system.cpu1.iq.fu_full::SimdShiftAcc                0      0.00%     20.14% # attempts to use FU when none available
system.cpu1.iq.fu_full::SimdDiv                     0      0.00%     20.14% # attempts to use FU when none available
system.cpu1.iq.fu_full::SimdSqrt                    0      0.00%     20.14% # attempts to use FU when none available
system.cpu1.iq.fu_full::SimdFloatAdd                0      0.00%     20.14% # attempts to use FU when none available
system.cpu1.iq.fu_full::SimdFloatAlu                0      0.00%     20.14% # attempts to use FU when none available
system.cpu1.iq.fu_full::SimdFloatCmp                0      0.00%     20.14% # attempts to use FU when none available
system.cpu1.iq.fu_full::SimdFloatCvt                0      0.00%     20.14% # attempts to use FU when none available
system.cpu1.iq.fu_full::SimdFloatDiv                0      0.00%     20.14% # attempts to use FU when none available
system.cpu1.iq.fu_full::SimdFloatMisc               0      0.00%     20.14% # attempts to use FU when none available
system.cpu1.iq.fu_full::SimdFloatMult               0      0.00%     20.14% # attempts to use FU when none available
system.cpu1.iq.fu_full::SimdFloatMultAcc            0      0.00%     20.14% # attempts to use FU when none available
system.cpu1.iq.fu_full::SimdFloatSqrt               0      0.00%     20.14% # attempts to use FU when none available
system.cpu1.iq.fu_full::SimdReduceAdd               0      0.00%     20.14% # attempts to use FU when none available
system.cpu1.iq.fu_full::SimdReduceAlu               0      0.00%     20.14% # attempts to use FU when none available
system.cpu1.iq.fu_full::SimdReduceCmp               0      0.00%     20.14% # attempts to use FU when none available
system.cpu1.iq.fu_full::SimdFloatReduceAdd            0      0.00%     20.14% # attempts to use FU when none available
system.cpu1.iq.fu_full::SimdFloatReduceCmp            0      0.00%     20.14% # attempts to use FU when none available
system.cpu1.iq.fu_full::SimdAes                     0      0.00%     20.14% # attempts to use FU when none available
system.cpu1.iq.fu_full::SimdAesMix                  0      0.00%     20.14% # attempts to use FU when none available
system.cpu1.iq.fu_full::SimdSha1Hash                0      0.00%     20.14% # attempts to use FU when none available
system.cpu1.iq.fu_full::SimdSha1Hash2               0      0.00%     20.14% # attempts to use FU when none available
system.cpu1.iq.fu_full::SimdSha256Hash              0      0.00%     20.14% # attempts to use FU when none available
system.cpu1.iq.fu_full::SimdSha256Hash2             0      0.00%     20.14% # attempts to use FU when none available
system.cpu1.iq.fu_full::SimdShaSigma2               0      0.00%     20.14% # attempts to use FU when none available
system.cpu1.iq.fu_full::SimdShaSigma3               0      0.00%     20.14% # attempts to use FU when none available
system.cpu1.iq.fu_full::SimdPredAlu                 0      0.00%     20.14% # attempts to use FU when none available
system.cpu1.iq.fu_full::MemRead                816325     70.34%     90.48% # attempts to use FU when none available
system.cpu1.iq.fu_full::MemWrite               110541      9.52%    100.00% # attempts to use FU when none available
system.cpu1.iq.fu_full::FloatMemRead                0      0.00%    100.00% # attempts to use FU when none available
[...]
system.cpu1.dcache.ReadReq_miss_rate::total     0.224147                       # miss rate for ReadReq accesses
system.cpu1.dcache.ReadReq_avg_miss_latency::.cpu1.data 82475.510728                       # average ReadReq miss latency
system.cpu1.dcache.ReadReq_avg_miss_latency::total 82475.510728                       # average ReadReq miss latency
system.cpu1.dcache.ReadReq_mshr_hits::.cpu1.data      2301387                       # number of ReadReq MSHR hits
system.cpu1.dcache.ReadReq_mshr_hits::total      2301387                       # number of ReadReq MSHR hits
system.cpu1.dcache.ReadReq_mshr_misses::.cpu1.data      1116334                       # number of ReadReq MSHR misses
system.cpu1.dcache.ReadReq_mshr_misses::total      1116334                       # number of ReadReq MSHR misses
system.cpu1.dcache.ReadReq_mshr_miss_latency::.cpu1.data 108346120500                       # number of ReadReq MSHR miss cycles
system.cpu1.dcache.ReadReq_mshr_miss_latency::total 108346120500                       # number of ReadReq MSHR miss cycles
system.cpu1.dcache.ReadReq_mshr_miss_rate::.cpu1.data     0.073213                       # mshr miss rate for ReadReq accesses
system.cpu1.dcache.ReadReq_mshr_miss_rate::total     0.073213                       # mshr miss rate for ReadReq accesses
system.cpu1.dcache.ReadReq_avg_mshr_miss_latency::.cpu1.data 97055.290352                       # average ReadReq mshr miss latency
system.cpu1.dcache.ReadReq_avg_mshr_miss_latency::total 97055.290352                       # average ReadReq mshr miss latency
system.cpu1.dcache.WriteReq_hits::.cpu1.data       868766                       # number of WriteReq hits
system.cpu1.dcache.WriteReq_hits::total        868766                       # number of WriteReq hits
system.cpu1.dcache.WriteReq_misses::.cpu1.data       587239                       # number of WriteReq misses
system.cpu1.dcache.WriteReq_misses::total       587239                       # number of WriteReq misses
system.cpu1.dcache.WriteReq_miss_latency::.cpu1.data  46116312470                       # number of WriteReq miss cycles
system.cpu1.dcache.WriteReq_miss_latency::total  46116312470                       # number of WriteReq miss cycles
system.cpu1.dcache.WriteReq_accesses::.cpu1.data      1456005                       # number of WriteReq accesses(hits+misses)
system.cpu1.dcache.WriteReq_accesses::total      1456005                       # number of WriteReq accesses(hits+misses)
system.cpu1.dcache.WriteReq_miss_rate::.cpu1.data     0.403322                       # miss rate for WriteReq accesses
system.cpu1.dcache.WriteReq_miss_rate::total     0.403322                       # miss rate for WriteReq accesses
system.cpu1.dcache.WriteReq_avg_miss_latency::.cpu1.data 78530.738711                       # average WriteReq miss latency
system.cpu1.dcache.WriteReq_avg_miss_latency::total 78530.738711                       # average WriteReq miss latency
system.cpu1.dcache.WriteReq_mshr_hits::.cpu1.data       547503                       # number of WriteReq MSHR hits
system.cpu1.dcache.WriteReq_mshr_hits::total       547503                       # number of WriteReq MSHR hits
system.cpu1.dcache.WriteReq_mshr_misses::.cpu1.data        39736                       # number of WriteReq MSHR misses
system.cpu1.dcache.WriteReq_mshr_misses::total        39736                       # number of WriteReq MSHR misses
system.cpu1.dcache.WriteReq_mshr_miss_latency::.cpu1.data   4009848983                       # number of WriteReq MSHR miss cycles
system.cpu1.dcache.WriteReq_mshr_miss_latency::total   4009848983                       # number of WriteReq MSHR miss cycles
system.cpu1.dcache.WriteReq_mshr_miss_rate::.cpu1.data     0.027291                       # mshr miss rate for WriteReq accesses
system.cpu1.dcache.WriteReq_mshr_miss_rate::total     0.027291                       # mshr miss rate for WriteReq accesses
system.cpu1.dcache.WriteReq_avg_mshr_miss_latency::.cpu1.data 100912.245395                       # average WriteReq mshr miss latency
system.cpu1.dcache.WriteReq_avg_mshr_miss_latency::total 100912.245395                       # average WriteReq mshr miss latency
system.cpu1.dcache.LoadLockedReq_hits::.cpu1.data          672                       # number of LoadLockedReq hits
system.cpu1.dcache.LoadLockedReq_hits::total          672                       # number of LoadLockedReq hits
system.cpu1.dcache.LoadLockedReq_misses::.cpu1.data          148                       # number of LoadLockedReq misses
system.cpu1.dcache.LoadLockedReq_misses::total          148                       # number of LoadLockedReq misses
system.cpu1.dcache.LoadLockedReq_miss_latency::.cpu1.data     12482000                       # number of LoadLockedReq miss cycles
system.cpu1.dcache.LoadLockedReq_miss_latency::total     12482000                       # number of LoadLockedReq miss cycles
system.cpu1.dcache.LoadLockedReq_accesses::.cpu1.data          820                       # number of LoadLockedReq accesses(hits+misses)
system.cpu1.dcache.LoadLockedReq_accesses::total          820                       # number of LoadLockedReq accesses(hits+misses)
system.cpu1.dcache.LoadLockedReq_miss_rate::.cpu1.data     0.180488                       # miss rate for LoadLockedReq accesses
system.cpu1.dcache.LoadLockedReq_miss_rate::total     0.180488                       # miss rate for LoadLockedReq accesses
system.cpu1.dcache.LoadLockedReq_avg_miss_latency::.cpu1.data 84337.837838                       # average LoadLockedReq miss latency
system.cpu1.dcache.LoadLockedReq_avg_miss_latency::total 84337.837838                       # average LoadLockedReq miss latency
system.cpu1.dcache.LoadLockedReq_mshr_hits::.cpu1.data           65                       # number of LoadLockedReq MSHR hits
system.cpu1.dcache.LoadLockedReq_mshr_hits::total           65                       # number of LoadLockedReq MSHR hits
system.cpu1.dcache.LoadLockedReq_mshr_misses::.cpu1.data           83                       # number of LoadLockedReq MSHR misses
system.cpu1.dcache.LoadLockedReq_mshr_misses::total           83                       # number of LoadLockedReq MSHR misses
system.cpu1.dcache.LoadLockedReq_mshr_miss_latency::.cpu1.data      6914500                       # number of LoadLockedReq MSHR miss cycles
system.cpu1.dcache.LoadLockedReq_mshr_miss_latency::total      6914500                       # number of LoadLockedReq MSHR miss cycles
system.cpu1.dcache.LoadLockedReq_mshr_miss_rate::.cpu1.data     0.101220                       # mshr miss rate for LoadLockedReq accesses
system.cpu1.dcache.LoadLockedReq_mshr_miss_rate::total     0.101220                       # mshr miss rate for LoadLockedReq accesses
system.cpu1.dcache.LoadLockedReq_avg_mshr_miss_latency::.cpu1.data 83307.228916                       # average LoadLockedReq mshr miss latency
system.cpu1.dcache.LoadLockedReq_avg_mshr_miss_latency::total 83307.228916                       # average LoadLockedReq mshr miss latency
system.cpu1.dcache.StoreCondReq_hits::.cpu1.data          584                       # number of StoreCondReq hits
system.cpu1.dcache.StoreCondReq_hits::total          584                       # number of StoreCondReq hits
system.cpu1.dcache.StoreCondReq_misses::.cpu1.data          213                       # number of StoreCondReq misses
system.cpu1.dcache.StoreCondReq_misses::total          213                       # number of StoreCondReq misses
system.cpu1.dcache.StoreCondReq_miss_latency::.cpu1.data      1600000                       # number of StoreCondReq miss cycles
system.cpu1.dcache.StoreCondReq_miss_latency::total      1600000                       # number of StoreCondReq miss cycles
system.cpu1.dcache.StoreCondReq_accesses::.cpu1.data          797                       # number of StoreCondReq accesses(hits+misses)
system.cpu1.dcache.StoreCondReq_accesses::total          797                       # number of StoreCondReq accesses(hits+misses)
system.cpu1.dcache.StoreCondReq_miss_rate::.cpu1.data     0.267252                       # miss rate for StoreCondReq accesses
system.cpu1.dcache.StoreCondReq_miss_rate::total     0.267252                       # miss rate for StoreCondReq accesses
system.cpu1.dcache.StoreCondReq_avg_miss_latency::.cpu1.data  7511.737089                       # average StoreCondReq miss latency
system.cpu1.dcache.StoreCondReq_avg_miss_latency::total  7511.737089                       # average StoreCondReq miss latency
system.cpu1.dcache.StoreCondReq_mshr_misses::.cpu1.data          213                       # number of StoreCondReq MSHR misses
system.cpu1.dcache.StoreCondReq_mshr_misses::total          213                       # number of StoreCondReq MSHR misses
system.cpu1.dcache.StoreCondReq_mshr_miss_latency::.cpu1.data      1387000                       # number of StoreCondReq MSHR miss cycles
system.cpu1.dcache.StoreCondReq_mshr_miss_latency::total      1387000                       # number of StoreCondReq MSHR miss cycles
system.cpu1.dcache.StoreCondReq_mshr_miss_rate::.cpu1.data     0.267252                       # mshr miss rate for StoreCondReq accesses
system.cpu1.dcache.StoreCondReq_mshr_miss_rate::total     0.267252                       # mshr miss rate for StoreCondReq accesses
system.cpu1.dcache.StoreCondReq_avg_mshr_miss_latency::.cpu1.data  6511.737089                       # average StoreCondReq mshr miss latency
system.cpu1.dcache.StoreCondReq_avg_mshr_miss_latency::total  6511.737089                       # average StoreCondReq mshr miss latency
system.cpu1.dcache.SwapReq_hits::.cpu1.data          307                       # number of SwapReq hits
system.cpu1.dcache.SwapReq_hits::total            307                       # number of SwapReq hits
system.cpu1.dcache.SwapReq_misses::.cpu1.data          157                       # number of SwapReq misses
system.cpu1.dcache.SwapReq_misses::total          157                       # number of SwapReq misses
system.cpu1.dcache.SwapReq_miss_latency::.cpu1.data       781000                       # number of SwapReq miss cycles
system.cpu1.dcache.SwapReq_miss_latency::total       781000                       # number of SwapReq miss cycles
system.cpu1.dcache.SwapReq_accesses::.cpu1.data          464                       # number of SwapReq accesses(hits+misses)
system.cpu1.dcache.SwapReq_accesses::total          464                       # number of SwapReq accesses(hits+misses)
system.cpu1.dcache.SwapReq_miss_rate::.cpu1.data     0.338362                       # miss rate for SwapReq accesses
system.cpu1.dcache.SwapReq_miss_rate::total     0.338362                       # miss rate for SwapReq accesses
system.cpu1.dcache.SwapReq_avg_miss_latency::.cpu1.data  4974.522293                       # average SwapReq miss latency
system.cpu1.dcache.SwapReq_avg_miss_latency::total  4974.522293                       # average SwapReq miss latency
system.cpu1.dcache.SwapReq_mshr_misses::.cpu1.data          157                       # number of SwapReq MSHR misses
system.cpu1.dcache.SwapReq_mshr_misses::total          157                       # number of SwapReq MSHR misses
system.cpu1.dcache.SwapReq_mshr_miss_latency::.cpu1.data       624000                       # number of SwapReq MSHR miss cycles
system.cpu1.dcache.SwapReq_mshr_miss_latency::total       624000                       # number of SwapReq MSHR miss cycles
system.cpu1.dcache.SwapReq_mshr_miss_rate::.cpu1.data     0.338362                       # mshr miss rate for SwapReq accesses
system.cpu1.dcache.SwapReq_mshr_miss_rate::total     0.338362                       # mshr miss rate for SwapReq accesses
system.cpu1.dcache.SwapReq_avg_mshr_miss_latency::.cpu1.data  3974.522293                       # average SwapReq mshr miss latency
system.cpu1.dcache.SwapReq_avg_mshr_miss_latency::total  3974.522293                       # average SwapReq mshr miss latency
system.cpu1.dcache.tags.pwrStateResidencyTicks::UNDEFINED 355861995000                       # Cumulative time (in ticks) in various power states
system.cpu1.dcache.tags.tagsinuse           31.090801                       # Cycle average of tags in use
system.cpu1.dcache.tags.total_refs           13860763                       # Total number of references to valid blocks.
system.cpu1.dcache.tags.sampled_refs          1155885                       # Sample count of references to valid blocks.
system.cpu1.dcache.tags.avg_refs            11.991472                       # Average number of references to valid blocks.
system.cpu1.dcache.tags.warmup_cycle                0                       # Cycle when the warmup percentage was hit.
system.cpu1.dcache.tags.occ_blocks::.cpu1.data    31.090801                       # Average occupied blocks per requestor
system.cpu1.dcache.tags.occ_percent::.cpu1.data     0.971588                       # Average percentage of cache occupancy
system.cpu1.dcache.tags.occ_percent::total     0.971588                       # Average percentage of cache occupancy
system.cpu1.dcache.tags.occ_task_id_blocks::1024           29                       # Occupied blocks per task id
system.cpu1.dcache.tags.age_task_id_blocks_1024::1           29                       # Occupied blocks per task id
system.cpu1.dcache.tags.occ_task_id_percent::1024     0.906250                       # Percentage of cache occupancy per task id
system.cpu1.dcache.tags.tag_accesses         34567356                       # Number of tag accesses
system.cpu1.dcache.tags.data_accesses        34567356                       # Number of data accesses
system.cpu_clk_domain.clock                       500                       # Clock period in ticks
system.tol2bus.pwrStateResidencyTicks::UNDEFINED 355861995000                       # Cumulative time (in ticks) in various power states
system.tol2bus.trans_dist::ReadResp          13762327                       # Transaction distribution
system.tol2bus.trans_dist::WritebackDirty      1143216                       # Transaction distribution
system.tol2bus.trans_dist::WritebackClean     13235040                       # Transaction distribution
system.tol2bus.trans_dist::CleanEvict        36164834                       # Transaction distribution
system.tol2bus.trans_dist::HardPFReq         27346400                       # Transaction distribution
system.tol2bus.trans_dist::HardPFResp               1                       # Transaction distribution
system.tol2bus.trans_dist::UpgradeReq            1849                       # Transaction distribution
system.tol2bus.trans_dist::SCUpgradeReq           451                       # Transaction distribution
system.tol2bus.trans_dist::UpgradeResp           2300                       # Transaction distribution
system.tol2bus.trans_dist::ReadExReq            84086                       # Transaction distribution
system.tol2bus.trans_dist::ReadExResp           84086                       # Transaction distribution
system.tol2bus.trans_dist::ReadCleanReq         17953                       # Transaction distribution
system.tol2bus.trans_dist::ReadSharedReq     13744374                       # Transaction distribution
system.tol2bus.pkt_count_system.cpu0.icache.mem_side::system.l2.cpu_side        46002                       # Packet count per connected master and slave (bytes)
system.tol2bus.pkt_count_system.cpu0.dcache.mem_side::system.l2.cpu_side     38017922                       # Packet count per connected master and slave (bytes)
system.tol2bus.pkt_count_system.cpu1.icache.mem_side::system.l2.cpu_side         7857                       # Packet count per connected master and slave (bytes)
system.tol2bus.pkt_count_system.cpu1.dcache.mem_side::system.l2.cpu_side      3464458                       # Packet count per connected master and slave (bytes)
system.tol2bus.pkt_count::total              41536239                       # Packet count per connected master and slave (bytes)
system.tol2bus.pkt_size_system.cpu0.icache.mem_side::system.l2.cpu_side      1962752                       # Cumulative packet size per connected master and slave (bytes)
system.tol2bus.pkt_size_system.cpu0.dcache.mem_side::system.l2.cpu_side   1621944512                       # Cumulative packet size per connected master and slave (bytes)
system.tol2bus.pkt_size_system.cpu1.icache.mem_side::system.l2.cpu_side       335232                       # Cumulative packet size per connected master and slave (bytes)
system.tol2bus.pkt_size_system.cpu1.dcache.mem_side::system.l2.cpu_side    147696832                       # Cumulative packet size per connected master and slave (bytes)
system.tol2bus.pkt_size::total             1771939328                       # Cumulative packet size per connected master and slave (bytes)
system.tol2bus.snoops                        64050679                       # Total snoops (count)
system.tol2bus.snoopTraffic                  34439616                       # Total snoop traffic (bytes)
system.tol2bus.snoop_fanout::samples         77910026                       # Request fanout histogram
system.tol2bus.snoop_fanout::mean            0.146482                       # Request fanout histogram
system.tol2bus.snoop_fanout::stdev           0.357968                       # Request fanout histogram
system.tol2bus.snoop_fanout::underflows             0      0.00%      0.00% # Request fanout histogram
system.tol2bus.snoop_fanout::0               66618988     85.51%     85.51% # Request fanout histogram
system.tol2bus.snoop_fanout::1               11169658     14.34%     99.84% # Request fanout histogram
system.tol2bus.snoop_fanout::2                 121380      0.16%    100.00% # Request fanout histogram
system.tol2bus.snoop_fanout::3                      0      0.00%    100.00% # Request fanout histogram
system.tol2bus.snoop_fanout::4                      0      0.00%    100.00% # Request fanout histogram
system.tol2bus.snoop_fanout::5                      0      0.00%    100.00% # Request fanout histogram
system.tol2bus.snoop_fanout::6                      0      0.00%    100.00% # Request fanout histogram
system.tol2bus.snoop_fanout::7                      0      0.00%    100.00% # Request fanout histogram
system.tol2bus.snoop_fanout::8                      0      0.00%    100.00% # Request fanout histogram
system.tol2bus.snoop_fanout::overflows              0      0.00%    100.00% # Request fanout histogram
system.tol2bus.snoop_fanout::min_value              0                       # Request fanout histogram
system.tol2bus.snoop_fanout::max_value              2                       # Request fanout histogram
system.tol2bus.snoop_fanout::total           77910026                       # Request fanout histogram
system.tol2bus.reqLayer0.occupancy        27722111102                       # Layer occupancy (ticks)
system.tol2bus.reqLayer0.utilization              7.8                       # Layer utilization (%)
system.tol2bus.respLayer1.occupancy       19011357210                       # Layer occupancy (ticks)
system.tol2bus.respLayer1.utilization             5.3                       # Layer utilization (%)
system.tol2bus.respLayer0.occupancy          23007986                       # Layer occupancy (ticks)
system.tol2bus.respLayer0.utilization             0.0                       # Layer utilization (%)
system.tol2bus.respLayer3.occupancy        1735999244                       # Layer occupancy (ticks)
system.tol2bus.respLayer3.utilization             0.5                       # Layer utilization (%)
system.tol2bus.respLayer2.occupancy           3934488                       # Layer occupancy (ticks)
system.tol2bus.respLayer2.utilization             0.0                       # Layer utilization (%)
system.tol2bus.snoopLayer0.occupancy             1503                       # Layer occupancy (ticks)
system.tol2bus.snoopLayer0.utilization            0.0                       # Layer utilization (%)

---------- End Simulation Statistics   ----------
