
---------- Begin Simulation Statistics ----------
final_tick                               932305171500                       # Number of ticks from beginning of simulation (restored from checkpoints and never reset)
host_inst_rate                                  61156                       # Simulator instruction rate (inst/s)
host_mem_usage                                 701888                       # Number of bytes of host memory used
host_op_rate                                    61357                       # Simulator op (including micro ops) rate (op/s)
host_seconds                                 18077.91                       # Real time elapsed on the host
host_tick_rate                               51571503                       # Simulator tick rate (ticks/s)
sim_freq                                 1000000000000                       # Frequency of simulated ticks
sim_insts                                  1105575792                       # Number of instructions simulated
sim_ops                                    1109201146                       # Number of ops (including micro ops) simulated
sim_seconds                                  0.932305                       # Number of seconds simulated
sim_ticks                                932305171500                       # Number of ticks simulated
system.cpu0.branchPred.BTBCorrect                   0                       # Number of correct BTB predictions (this stat may not work properly.
system.cpu0.branchPred.BTBHitPct            88.002695                       # BTB Hit Percentage
system.cpu0.branchPred.BTBHits              145716498                       # Number of BTB hits
system.cpu0.branchPred.BTBLookups           165581859                       # Number of BTB lookups
system.cpu0.branchPred.RASInCorrect                 0                       # Number of incorrect RAS predictions.
system.cpu0.branchPred.condIncorrect         17030617                       # Number of conditional branches incorrect
system.cpu0.branchPred.condPredicted        226167475                       # Number of conditional branches predicted
system.cpu0.branchPred.indirectHits          18512166                       # Number of indirect target hits.
system.cpu0.branchPred.indirectLookups       18705034                       # Number of indirect predictor lookups.
system.cpu0.branchPred.indirectMisses          192868                       # Number of indirect misses.
system.cpu0.branchPred.lookups              287385906                       # Number of BP lookups
system.cpu0.branchPred.usedRAS                      0                       # Number of times the RAS was used to get a target.
system.cpu0.branchPredindirectMispredicted      1859435                       # Number of mispredicted indirect branches.
system.cpu0.commit.amos                       1811468                       # Number of atomic instructions committed
system.cpu0.commit.branchMispredicts         10612170                       # The number of times a branch was mispredicted
system.cpu0.commit.branches                 260637607                       # Number of branches committed
system.cpu0.commit.bw_lim_events             27682946                       # number cycles where commit BW limit reached
system.cpu0.commit.commitNonSpecStalls        5441363                       # The number of times commit has been forced to stall to communicate backwards
system.cpu0.commit.commitSquashedInsts       80113100                       # The number of squashed insts skipped by commit
system.cpu0.commit.committedInsts          1050542182                       # Number of instructions committed
system.cpu0.commit.committedOps            1052356168                       # Number of ops (including micro ops) committed
system.cpu0.commit.committed_per_cycle::samples   1711290718                       # Number of insts commited each cycle
system.cpu0.commit.committed_per_cycle::mean     0.614949                       # Number of insts commited each cycle
system.cpu0.commit.committed_per_cycle::stdev     1.371109                       # Number of insts commited each cycle
system.cpu0.commit.committed_per_cycle::underflows            0      0.00%      0.00% # Number of insts commited each cycle
system.cpu0.commit.committed_per_cycle::0   1203270076     70.31%     70.31% # Number of insts commited each cycle
system.cpu0.commit.committed_per_cycle::1    301267094     17.60%     87.92% # Number of insts commited each cycle
system.cpu0.commit.committed_per_cycle::2     73395952      4.29%     92.21% # Number of insts commited each cycle
system.cpu0.commit.committed_per_cycle::3     67129912      3.92%     96.13% # Number of insts commited each cycle
system.cpu0.commit.committed_per_cycle::4     23182020      1.35%     97.48% # Number of insts commited each cycle
system.cpu0.commit.committed_per_cycle::5      7277748      0.43%     97.91% # Number of insts commited each cycle
system.cpu0.commit.committed_per_cycle::6      4267744      0.25%     98.16% # Number of insts commited each cycle
system.cpu0.commit.committed_per_cycle::7      3817226      0.22%     98.38% # Number of insts commited each cycle
system.cpu0.commit.committed_per_cycle::8     27682946      1.62%    100.00% # Number of insts commited each cycle
system.cpu0.commit.committed_per_cycle::overflows            0      0.00%    100.00% # Number of insts commited each cycle
system.cpu0.commit.committed_per_cycle::min_value            0                       # Number of insts commited each cycle
system.cpu0.commit.committed_per_cycle::max_value            8                       # Number of insts commited each cycle
system.cpu0.commit.committed_per_cycle::total   1711290718                       # Number of insts commited each cycle
system.cpu0.commit.fp_insts                        50                       # Number of committed floating point instructions.
system.cpu0.commit.function_calls            20854716                       # Number of function calls committed.
system.cpu0.commit.int_insts               1015742443                       # Number of committed integer instructions.
system.cpu0.commit.loads                    326185119                       # Number of loads committed
system.cpu0.commit.membars                    3625341                       # Number of memory barriers committed
system.cpu0.commit.op_class_0::No_OpClass      3625347      0.34%      0.34% # Class of committed instruction
system.cpu0.commit.op_class_0::IntAlu       583774791     55.47%     55.82% # Class of committed instruction
system.cpu0.commit.op_class_0::IntMult        8031605      0.76%     56.58% # Class of committed instruction
system.cpu0.commit.op_class_0::IntDiv         1811037      0.17%     56.75% # Class of committed instruction
system.cpu0.commit.op_class_0::FloatAdd             0      0.00%     56.75% # Class of committed instruction
system.cpu0.commit.op_class_0::FloatCmp             4      0.00%     56.75% # Class of committed instruction
system.cpu0.commit.op_class_0::FloatCvt            12      0.00%     56.75% # Class of committed instruction
system.cpu0.commit.op_class_0::FloatMult            0      0.00%     56.75% # Class of committed instruction
system.cpu0.commit.op_class_0::FloatMultAcc            0      0.00%     56.75% # Class of committed instruction
system.cpu0.commit.op_class_0::FloatDiv             2      0.00%     56.75% # Class of committed instruction
system.cpu0.commit.op_class_0::FloatMisc            4      0.00%     56.75% # Class of committed instruction
system.cpu0.commit.op_class_0::FloatSqrt            0      0.00%     56.75% # Class of committed instruction
system.cpu0.commit.op_class_0::SimdAdd              0      0.00%     56.75% # Class of committed instruction
system.cpu0.commit.op_class_0::SimdAddAcc            0      0.00%     56.75% # Class of committed instruction
system.cpu0.commit.op_class_0::SimdAlu              0      0.00%     56.75% # Class of committed instruction
system.cpu0.commit.op_class_0::SimdCmp              0      0.00%     56.75% # Class of committed instruction
system.cpu0.commit.op_class_0::SimdCvt              0      0.00%     56.75% # Class of committed instruction
system.cpu0.commit.op_class_0::SimdMisc             0      0.00%     56.75% # Class of committed instruction
system.cpu0.commit.op_class_0::SimdMult             0      0.00%     56.75% # Class of committed instruction
system.cpu0.commit.op_class_0::SimdMultAcc            0      0.00%     56.75% # Class of committed instruction
system.cpu0.commit.op_class_0::SimdShift            0      0.00%     56.75% # Class of committed instruction
system.cpu0.commit.op_class_0::SimdShiftAcc            0      0.00%     56.75% # Class of committed instruction
system.cpu0.commit.op_class_0::SimdDiv              0      0.00%     56.75% # Class of committed instruction
system.cpu0.commit.op_class_0::SimdSqrt             0      0.00%     56.75% # Class of committed instruction
system.cpu0.commit.op_class_0::SimdFloatAdd            0      0.00%     56.75% # Class of committed instruction
system.cpu0.commit.op_class_0::SimdFloatAlu            0      0.00%     56.75% # Class of committed instruction
system.cpu0.commit.op_class_0::SimdFloatCmp            0      0.00%     56.75% # Class of committed instruction
system.cpu0.commit.op_class_0::SimdFloatCvt            0      0.00%     56.75% # Class of committed instruction
system.cpu0.commit.op_class_0::SimdFloatDiv            0      0.00%     56.75% # Class of committed instruction
system.cpu0.commit.op_class_0::SimdFloatMisc            0      0.00%     56.75% # Class of committed instruction
system.cpu0.commit.op_class_0::SimdFloatMult            0      0.00%     56.75% # Class of committed instruction
system.cpu0.commit.op_class_0::SimdFloatMultAcc            0      0.00%     56.75% # Class of committed instruction
system.cpu0.commit.op_class_0::SimdFloatSqrt            0      0.00%     56.75% # Class of committed instruction
system.cpu0.commit.op_class_0::SimdReduceAdd            0      0.00%     56.75% # Class of committed instruction
system.cpu0.commit.op_class_0::SimdReduceAlu            0      0.00%     56.75% # Class of committed instruction
system.cpu0.commit.op_class_0::SimdReduceCmp            0      0.00%     56.75% # Class of committed instruction
system.cpu0.commit.op_class_0::SimdFloatReduceAdd            0      0.00%     56.75% # Class of committed instruction
system.cpu0.commit.op_class_0::SimdFloatReduceCmp            0      0.00%     56.75% # Class of committed instruction
system.cpu0.commit.op_class_0::SimdAes              0      0.00%     56.75% # Class of committed instruction
system.cpu0.commit.op_class_0::SimdAesMix            0      0.00%     56.75% # Class of committed instruction
system.cpu0.commit.op_class_0::SimdSha1Hash            0      0.00%     56.75% # Class of committed instruction
system.cpu0.commit.op_class_0::SimdSha1Hash2            0      0.00%     56.75% # Class of committed instruction
system.cpu0.commit.op_class_0::SimdSha256Hash            0      0.00%     56.75% # Class of committed instruction
system.cpu0.commit.op_class_0::SimdSha256Hash2            0      0.00%     56.75% # Class of committed instruction
system.cpu0.commit.op_class_0::SimdShaSigma2            0      0.00%     56.75% # Class of committed instruction
system.cpu0.commit.op_class_0::SimdShaSigma3            0      0.00%     56.75% # Class of committed instruction
system.cpu0.commit.op_class_0::SimdPredAlu            0      0.00%     56.75% # Class of committed instruction
system.cpu0.commit.op_class_0::MemRead      327996579     31.17%     87.92% # Class of committed instruction
system.cpu0.commit.op_class_0::MemWrite     127116759     12.08%    100.00% # Class of committed instruction
system.cpu0.commit.op_class_0::FloatMemRead            8      0.00%    100.00% # Class of committed instruction
system.cpu0.commit.op_class_0::FloatMemWrite           20      0.00%    100.00% # Class of committed instruction
system.cpu0.commit.op_class_0::IprAccess            0      0.00%    100.00% # Class of committed instruction
system.cpu0.commit.op_class_0::InstPrefetch            0      0.00%    100.00% # Class of committed instruction
system.cpu0.commit.op_class_0::total       1052356168                       # Class of committed instruction
system.cpu0.commit.refs                     455113366                       # Number of memory references committed
system.cpu0.commit.swp_count                        0                       # Number of s/w prefetches committed
system.cpu0.commit.vec_insts                        0                       # Number of committed Vector instructions.
system.cpu0.committedInsts                 1050542182                       # Number of Instructions Simulated
system.cpu0.committedOps                   1052356168                       # Number of Ops (including micro ops) Simulated
system.cpu0.cpi                              1.772134                       # CPI: Cycles Per Instruction
system.cpu0.cpi_total                        1.772134                       # CPI: Total CPI of All Threads
system.cpu0.decode.BlockedCycles            275794130                       # Number of cycles decode is blocked
system.cpu0.decode.BranchMispred              6426728                       # Number of times decode detected a branch misprediction
system.cpu0.decode.BranchResolved           142881149                       # Number of times decode resolved a branch
system.cpu0.decode.DecodedInsts            1162029104                       # Number of instructions handled by decode
system.cpu0.decode.IdleCycles               647254679                       # Number of cycles decode is idle
system.cpu0.decode.RunCycles                790385216                       # Number of cycles decode is running
system.cpu0.decode.SquashCycles              10619777                       # Number of cycles decode is squashing
system.cpu0.decode.SquashedInsts             14908248                       # Number of squashed instructions handled by decode
system.cpu0.decode.UnblockCycles              5347357                       # Number of cycles decode is unblocking
system.cpu0.dtb.accesses                            0                       # DTB accesses
system.cpu0.dtb.hits                                0                       # DTB hits
system.cpu0.dtb.misses                              0                       # DTB misses
system.cpu0.dtb.read_accesses                       0                       # DTB read accesses
system.cpu0.dtb.read_hits                           0                       # DTB read hits
system.cpu0.dtb.read_misses                         0                       # DTB read misses
system.cpu0.dtb.write_accesses                      0                       # DTB write accesses
system.cpu0.dtb.write_hits                          0                       # DTB write hits
system.cpu0.dtb.write_misses                        0                       # DTB write misses
system.cpu0.fetch.Branches                  287385906                       # Number of branches that fetch encountered
system.cpu0.fetch.CacheLines                196799876                       # Number of cache lines fetched
system.cpu0.fetch.Cycles                   1082614854                       # Number of cycles fetch has run and was not squashing or blocked
system.cpu0.fetch.IcacheSquashes              4100627                       # Number of outstanding Icache misses that were squashed
system.cpu0.fetch.IcacheWaitRetryStallCycles          110                       # Number of stall cycles due to full MSHR
system.cpu0.fetch.Insts                    1198264674                       # Number of instructions fetch has processed
system.cpu0.fetch.MiscStallCycles                  14                       # Number of cycles fetch has spent waiting on interrupts, or bad addresses, or out of MSHRs
system.cpu0.fetch.PendingTrapStallCycles           18                       # Number of stall cycles due to pending traps
system.cpu0.fetch.SquashCycles               34076452                       # Number of cycles fetch has spent squashing
system.cpu0.fetch.branchRate                 0.154367                       # Number of branch fetches per cycle
system.cpu0.fetch.icacheStallCycles         629747937                       # Number of cycles fetch is stalled on an Icache miss
system.cpu0.fetch.predictedBranches         164228664                       # Number of branches that fetch has predicted taken
system.cpu0.fetch.rate                       0.643639                       # Number of inst fetches per cycle
system.cpu0.fetch.rateDist::samples        1729401159                       # Number of instructions fetched each cycle (Total)
system.cpu0.fetch.rateDist::mean             0.695664                       # Number of instructions fetched each cycle (Total)
system.cpu0.fetch.rateDist::stdev            0.944915                       # Number of instructions fetched each cycle (Total)
system.cpu0.fetch.rateDist::underflows              0      0.00%      0.00% # Number of instructions fetched each cycle (Total)
system.cpu0.fetch.rateDist::0               896248895     51.82%     51.82% # Number of instructions fetched each cycle (Total)
system.cpu0.fetch.rateDist::1               611882233     35.38%     87.21% # Number of instructions fetched each cycle (Total)
system.cpu0.fetch.rateDist::2               114635189      6.63%     93.83% # Number of instructions fetched each cycle (Total)
system.cpu0.fetch.rateDist::3                79813392      4.62%     98.45% # Number of instructions fetched each cycle (Total)
system.cpu0.fetch.rateDist::4                19015407      1.10%     99.55% # Number of instructions fetched each cycle (Total)
system.cpu0.fetch.rateDist::5                 4255563      0.25%     99.79% # Number of instructions fetched each cycle (Total)
system.cpu0.fetch.rateDist::6                 1626316      0.09%     99.89% # Number of instructions fetched each cycle (Total)
system.cpu0.fetch.rateDist::7                     661      0.00%     99.89% # Number of instructions fetched each cycle (Total)
system.cpu0.fetch.rateDist::8                 1923503      0.11%    100.00% # Number of instructions fetched each cycle (Total)
system.cpu0.fetch.rateDist::overflows               0      0.00%    100.00% # Number of instructions fetched each cycle (Total)
system.cpu0.fetch.rateDist::min_value               0                       # Number of instructions fetched each cycle (Total)
system.cpu0.fetch.rateDist::max_value               8                       # Number of instructions fetched each cycle (Total)
system.cpu0.fetch.rateDist::total          1729401159                       # Number of instructions fetched each cycle (Total)
system.cpu0.fp_regfile_reads                       53                       # number of floating regfile reads
system.cpu0.fp_regfile_writes                      25                       # number of floating regfile writes
system.cpu0.idleCycles                      132300448                       # Total number of cycles that the CPU has spent unscheduled due to idling
system.cpu0.iew.branchMispredicts            10753596                       # Number of branch mispredicts detected at execute
system.cpu0.iew.exec_branches               269933829                       # Number of branches executed
system.cpu0.iew.exec_nop                            0                       # number of nop insts executed
system.cpu0.iew.exec_rate                    0.590013                       # Inst execution rate
system.cpu0.iew.exec_refs                   480227837                       # number of memory reference insts executed
system.cpu0.iew.exec_stores                 132121949                       # Number of stores executed
system.cpu0.iew.exec_swp                            0                       # number of swp insts executed
system.cpu0.iew.iewBlockCycles              238649269                       # Number of cycles IEW is blocking
system.cpu0.iew.iewDispLoadInsts            358264871                       # Number of dispatched load instructions
system.cpu0.iew.iewDispNonSpecInsts           3567140                       # Number of dispatched non-speculative instructions
system.cpu0.iew.iewDispSquashedInsts          5873349                       # Number of squashed instructions skipped by dispatch
system.cpu0.iew.iewDispStoreInsts           136818790                       # Number of dispatched store instructions
system.cpu0.iew.iewDispatchedInsts         1132457038                       # Number of instructions dispatched to IQ
system.cpu0.iew.iewExecLoadInsts            348105888                       # Number of load instructions executed
system.cpu0.iew.iewExecSquashedInsts          8215895                       # Number of squashed instructions skipped in execute
system.cpu0.iew.iewExecutedInsts           1098428123                       # Number of executed instructions
system.cpu0.iew.iewIQFullEvents               1734748                       # Number of times the IQ has become full, causing a stall
system.cpu0.iew.iewIdleCycles                       0                       # Number of cycles IEW is idle
system.cpu0.iew.iewLSQFullEvents              1735657                       # Number of times the LSQ has become full, causing a stall
system.cpu0.iew.iewSquashCycles              10619777                       # Number of cycles IEW is squashing
system.cpu0.iew.iewUnblockCycles              5406678                       # Number of cycles IEW is unblocking
system.cpu0.iew.lsq.thread0.blockedLoads            0                       # Number of blocked loads due to partial load-store forwarding
system.cpu0.iew.lsq.thread0.cacheBlocked        72881                       # Number of times an access to memory failed due to the cache being blocked
system.cpu0.iew.lsq.thread0.forwLoads        16559604                       # Number of loads that had data forwarded from stores
system.cpu0.iew.lsq.thread0.ignoredResponses        46153                       # Number of memory responses ignored because the instruction is squashed
system.cpu0.iew.lsq.thread0.invAddrLoads            0                       # Number of loads ignored due to an invalid address
system.cpu0.iew.lsq.thread0.invAddrSwpfs            0                       # Number of software prefetches ignored due to an invalid address
system.cpu0.iew.lsq.thread0.memOrderViolation         7616                       # Number of memory ordering violations
system.cpu0.iew.lsq.thread0.rescheduledLoads      3790680                       # Number of loads that were rescheduled
system.cpu0.iew.lsq.thread0.squashedLoads     32079752                       # Number of loads squashed
system.cpu0.iew.lsq.thread0.squashedStores      7890543                       # Number of stores squashed
system.cpu0.iew.memOrderViolationEvents          7616                       # Number of memory order violations
system.cpu0.iew.predictedNotTakenIncorrect      1178010                       # Number of branches that were predicted not taken incorrectly
system.cpu0.iew.predictedTakenIncorrect       9575586                       # Number of branches that were predicted taken incorrectly
system.cpu0.iew.wb_consumers                497622269                       # num instructions consuming a value
system.cpu0.iew.wb_count                   1089410698                       # cumulative count of insts written-back
system.cpu0.iew.wb_fanout                    0.836841                       # average fanout of values written-back
system.cpu0.iew.wb_producers                416430649                       # num instructions producing a value
system.cpu0.iew.wb_rate                      0.585169                       # insts written-back per cycle
system.cpu0.iew.wb_sent                    1089476578                       # cumulative count of insts sent to commit
system.cpu0.int_regfile_reads              1343786981                       # number of integer regfile reads
system.cpu0.int_regfile_writes              695193239                       # number of integer regfile writes
system.cpu0.ipc                              0.564291                       # IPC: Instructions Per Cycle
system.cpu0.ipc_total                        0.564291                       # IPC: Total IPC of All Threads
system.cpu0.iq.FU_type_0::No_OpClass          3626820      0.33%      0.33% # Type of FU issued
system.cpu0.iq.FU_type_0::IntAlu            608073808     54.95%     55.28% # Type of FU issued
system.cpu0.iq.FU_type_0::IntMult             8140473      0.74%     56.01% # Type of FU issued
system.cpu0.iq.FU_type_0::IntDiv              1811523      0.16%     56.17% # Type of FU issued
system.cpu0.iq.FU_type_0::FloatAdd                  0      0.00%     56.17% # Type of FU issued
system.cpu0.iq.FU_type_0::FloatCmp                  4      0.00%     56.17% # Type of FU issued
system.cpu0.iq.FU_type_0::FloatCvt                 12      0.00%     56.17% # Type of FU issued
system.cpu0.iq.FU_type_0::FloatMult                 0      0.00%     56.17% # Type of FU issued
system.cpu0.iq.FU_type_0::FloatMultAcc              3      0.00%     56.17% # Type of FU issued
system.cpu0.iq.FU_type_0::FloatDiv                  2      0.00%     56.17% # Type of FU issued
system.cpu0.iq.FU_type_0::FloatMisc                 4      0.00%     56.17% # Type of FU issued
system.cpu0.iq.FU_type_0::FloatSqrt                 0      0.00%     56.17% # Type of FU issued
system.cpu0.iq.FU_type_0::SimdAdd                   0      0.00%     56.17% # Type of FU issued
system.cpu0.iq.FU_type_0::SimdAddAcc                0      0.00%     56.17% # Type of FU issued
system.cpu0.iq.FU_type_0::SimdAlu                   0      0.00%     56.17% # Type of FU issued
system.cpu0.iq.FU_type_0::SimdCmp                   0      0.00%     56.17% # Type of FU issued
system.cpu0.iq.FU_type_0::SimdCvt                   0      0.00%     56.17% # Type of FU issued
system.cpu0.iq.FU_type_0::SimdMisc                  0      0.00%     56.17% # Type of FU issued
system.cpu0.iq.FU_type_0::SimdMult                  0      0.00%     56.17% # Type of FU issued
system.cpu0.iq.FU_type_0::SimdMultAcc               0      0.00%     56.17% # Type of FU issued
system.cpu0.iq.FU_type_0::SimdShift                 0      0.00%     56.17% # Type of FU issued
system.cpu0.iq.FU_type_0::SimdShiftAcc              0      0.00%     56.17% # Type of FU issued
system.cpu0.iq.FU_type_0::SimdDiv                   0      0.00%     56.17% # Type of FU issued
system.cpu0.iq.FU_type_0::SimdSqrt                  0      0.00%     56.17% # Type of FU issued
system.cpu0.iq.FU_type_0::SimdFloatAdd              0      0.00%     56.17% # Type of FU issued
system.cpu0.iq.FU_type_0::SimdFloatAlu              0      0.00%     56.17% # Type of FU issued
system.cpu0.iq.FU_type_0::SimdFloatCmp              0      0.00%     56.17% # Type of FU issued
system.cpu0.iq.FU_type_0::SimdFloatCvt              0      0.00%     56.17% # Type of FU issued
system.cpu0.iq.FU_type_0::SimdFloatDiv              0      0.00%     56.17% # Type of FU issued
system.cpu0.iq.FU_type_0::SimdFloatMisc             0      0.00%     56.17% # Type of FU issued
system.cpu0.iq.FU_type_0::SimdFloatMult             0      0.00%     56.17% # Type of FU issued
system.cpu0.iq.FU_type_0::SimdFloatMultAcc            0      0.00%     56.17% # Type of FU issued
system.cpu0.iq.FU_type_0::SimdFloatSqrt             0      0.00%     56.17% # Type of FU issued
system.cpu0.iq.FU_type_0::SimdReduceAdd             0      0.00%     56.17% # Type of FU issued
system.cpu0.iq.FU_type_0::SimdReduceAlu             0      0.00%     56.17% # Type of FU issued
system.cpu0.iq.FU_type_0::SimdReduceCmp             0      0.00%     56.17% # Type of FU issued
system.cpu0.iq.FU_type_0::SimdFloatReduceAdd            0      0.00%     56.17% # Type of FU issued
system.cpu0.iq.FU_type_0::SimdFloatReduceCmp            0      0.00%     56.17% # Type of FU issued
system.cpu0.iq.FU_type_0::SimdAes                   0      0.00%     56.17% # Type of FU issued
system.cpu0.iq.FU_type_0::SimdAesMix                0      0.00%     56.17% # Type of FU issued
system.cpu0.iq.FU_type_0::SimdSha1Hash              0      0.00%     56.17% # Type of FU issued
system.cpu0.iq.FU_type_0::SimdSha1Hash2             0      0.00%     56.17% # Type of FU issued
system.cpu0.iq.FU_type_0::SimdSha256Hash            0      0.00%     56.17% # Type of FU issued
system.cpu0.iq.FU_type_0::SimdSha256Hash2            0      0.00%     56.17% # Type of FU issued
system.cpu0.iq.FU_type_0::SimdShaSigma2             0      0.00%     56.17% # Type of FU issued
system.cpu0.iq.FU_type_0::SimdShaSigma3             0      0.00%     56.17% # Type of FU issued
system.cpu0.iq.FU_type_0::SimdPredAlu               0      0.00%     56.17% # Type of FU issued
system.cpu0.iq.FU_type_0::MemRead           354104108     32.00%     88.17% # Type of FU issued
system.cpu0.iq.FU_type_0::MemWrite          130887233     11.83%    100.00% # Type of FU issued
system.cpu0.iq.FU_type_0::FloatMemRead              8      0.00%    100.00% # Type of FU issued
system.cpu0.iq.FU_type_0::FloatMemWrite            20      0.00%    100.00% # Type of FU issued
system.cpu0.iq.FU_type_0::IprAccess                 0      0.00%    100.00% # Type of FU issued
system.cpu0.iq.FU_type_0::InstPrefetch              0      0.00%    100.00% # Type of FU issued
system.cpu0.iq.FU_type_0::total            1106644018                       # Type of FU issued
system.cpu0.iq.fp_alu_accesses                     57                       # Number of floating point alu accesses
system.cpu0.iq.fp_inst_queue_reads                110                       # Number of floating instruction queue reads
system.cpu0.iq.fp_inst_queue_wakeup_accesses           53                       # Number of floating instruction queue wakeup accesses
system.cpu0.iq.fp_inst_queue_writes                56                       # Number of floating instruction queue writes
system.cpu0.iq.fu_busy_cnt                    1985877                       # FU busy when requested
system.cpu0.iq.fu_busy_rate                  0.001795                       # FU busy rate (busy events/executed inst)
system.cpu0.iq.fu_full::No_OpClass                  0      0.00%      0.00% # attempts to use FU when none available
system.cpu0.iq.fu_full::IntAlu                 298063     15.01%     15.01% # attempts to use FU when none available
system.cpu0.iq.fu_full::IntMult                     6      0.00%     15.01% # attempts to use FU when none available
system.cpu0.iq.fu_full::IntDiv                      0      0.00%     15.01% # attempts to use FU when none available
system.cpu0.iq.fu_full::FloatAdd                    0      0.00%     15.01% # attempts to use FU when none available
system.cpu0.iq.fu_full::FloatCmp                    0      0.00%     15.01% # attempts to use FU when none available
system.cpu0.iq.fu_full::FloatCvt                    0      0.00%     15.01% # attempts to use FU when none available
system.cpu0.iq.fu_full::FloatMult                   0      0.00%     15.01% # attempts to use FU when none available
system.cpu0.iq.fu_full::FloatMultAcc                0      0.00%     15.01% # attempts to use FU when none available
system.cpu0.iq.fu_full::FloatDiv                    0      0.00%     15.01% # attempts to use FU when none available
system.cpu0.iq.fu_full::FloatMisc                   0      0.00%     15.01% # attempts to use FU when none available
system.cpu0.iq.fu_full::FloatSqrt                   0      0.00%     15.01% # attempts to use FU when none available
system.cpu0.iq.fu_full::SimdAdd                     0      0.00%     15.01% # attempts to use FU when none available
system.cpu0.iq.fu_full::SimdAddAcc                  0      0.00%     15.01% # attempts to use FU when none available
system.cpu0.iq.fu_full::SimdAlu                     0      0.00%     15.01% # attempts to use FU when none available
system.cpu0.iq.fu_full::SimdCmp                     0      0.00%     15.01% # attempts to use FU when none available
system.cpu0.iq.fu_full::SimdCvt                     0      0.00%     15.01% # attempts to use FU when none available
system.cpu0.iq.fu_full::SimdMisc                    0      0.00%     15.01% # attempts to use FU when none available
system.cpu0.iq.fu_full::SimdMult                    0      0.00%     15.01% # attempts to use FU when none available
system.cpu0.iq.fu_full::SimdMultAcc                 0      0.00%     15.01% # attempts to use FU when none available
system.cpu0.iq.fu_full::SimdShift                   0      0.00%     15.01% # attempts to use FU when none available
system.cpu0.iq.fu_full::SimdShiftAcc                0      0.00%     15.01% # attempts to use FU when none available
system.cpu0.iq.fu_full::SimdDiv                     0      0.00%     15.01% # attempts to use FU when none available
system.cpu0.iq.fu_full::SimdSqrt                    0      0.00%     15.01% # attempts to use FU when none available
system.cpu0.iq.fu_full::SimdFloatAdd                0      0.00%     15.01% # attempts to use FU when none available
system.cpu0.iq.fu_full::SimdFloatAlu                0      0.00%     15.01% # attempts to use FU when none available
system.cpu0.iq.fu_full::SimdFloatCmp                0      0.00%     15.01% # attempts to use FU when none available
system.cpu0.iq.fu_full::SimdFloatCvt                0      0.00%     15.01% # attempts to use FU when none available
system.cpu0.iq.fu_full::SimdFloatDiv                0      0.00%     15.01% # attempts to use FU when none available
system.cpu0.iq.fu_full::SimdFloatMisc               0      0.00%     15.01% # attempts to use FU when none available
system.cpu0.iq.fu_full::SimdFloatMult               0      0.00%     15.01% # attempts to use FU when none available
system.cpu0.iq.fu_full::SimdFloatMultAcc            0      0.00%     15.01% # attempts to use FU when none available
system.cpu0.iq.fu_full::SimdFloatSqrt               0      0.00%     15.01% # attempts to use FU when none available
system.cpu0.iq.fu_full::SimdReduceAdd               0      0.00%     15.01% # attempts to use FU when none available
system.cpu0.iq.fu_full::SimdReduceAlu               0      0.00%     15.01% # attempts to use FU when none available
system.cpu0.iq.fu_full::SimdReduceCmp               0      0.00%     15.01% # attempts to use FU when none available
system.cpu0.iq.fu_full::SimdFloatReduceAdd            0      0.00%     15.01% # attempts to use FU when none available
system.cpu0.iq.fu_full::SimdFloatReduceCmp            0      0.00%     15.01% # attempts to use FU when none available
system.cpu0.iq.fu_full::SimdAes                     0      0.00%     15.01% # attempts to use FU when none available
system.cpu0.iq.fu_full::SimdAesMix                  0      0.00%     15.01% # attempts to use FU when none available
system.cpu0.iq.fu_full::SimdSha1Hash                0      0.00%     15.01% # attempts to use FU when none available
system.cpu0.iq.fu_full::SimdSha1Hash2               0      0.00%     15.01% # attempts to use FU when none available
system.cpu0.iq.fu_full::SimdSha256Hash              0      0.00%     15.01% # attempts to use FU when none available
system.cpu0.iq.fu_full::SimdSha256Hash2             0      0.00%     15.01% # attempts to use FU when none available
system.cpu0.iq.fu_full::SimdShaSigma2               0      0.00%     15.01% # attempts to use FU when none available
system.cpu0.iq.fu_full::SimdShaSigma3               0      0.00%     15.01% # attempts to use FU when none available
system.cpu0.iq.fu_full::SimdPredAlu                 0      0.00%     15.01% # attempts to use FU when none available
system.cpu0.iq.fu_full::MemRead               1515342     76.31%     91.32% # attempts to use FU when none available
system.cpu0.iq.fu_full::MemWrite               172462      8.68%    100.00% # attempts to use FU when none available
system.cpu0.iq.fu_full::FloatMemRead                0      0.00%    100.00% # attempts to use FU when none available
system.cpu0.iq.fu_full::FloatMemWrite               4      0.00%    100.00% # attempts to use FU when none available
system.cpu0.iq.fu_full::IprAccess                   0      0.00%    100.00% # attempts to use FU when none available
system.cpu0.iq.fu_full::InstPrefetch                0      0.00%    100.00% # attempts to use FU when none available
system.cpu0.iq.int_alu_accesses            1105003018                       # Number of integer alu accesses
system.cpu0.iq.int_inst_queue_reads        3944762476                       # Number of integer instruction queue reads
system.cpu0.iq.int_inst_queue_wakeup_accesses   1089410645                       # Number of integer instruction queue wakeup accesses
system.cpu0.iq.int_inst_queue_writes       1212564737                       # Number of integer instruction queue writes
system.cpu0.iq.iqInstsAdded                1121762345                       # Number of instructions added to the IQ (excludes non-spec)
system.cpu0.iq.iqInstsIssued               1106644018                       # Number of instructions issued
system.cpu0.iq.iqNonSpecInstsAdded           10694693                       # Number of non-speculative instructions added to the IQ
system.cpu0.iq.iqSquashedInstsExamined       80100867                       # Number of squashed instructions iterated over during squash; mainly for profiling
system.cpu0.iq.iqSquashedInstsIssued            87514                       # Number of squashed instructions issued
system.cpu0.iq.iqSquashedNonSpecRemoved       5253330                       # Number of squashed non-spec instructions that were removed
system.cpu0.iq.iqSquashedOperandsExamined     43033013                       # Number of squashed operands that are examined and possibly removed from graph
system.cpu0.iq.issued_per_cycle::samples   1729401159                       # Number of insts issued each cycle
system.cpu0.iq.issued_per_cycle::mean        0.639900                       # Number of insts issued each cycle
system.cpu0.iq.issued_per_cycle::stdev       0.853517                       # Number of insts issued each cycle
system.cpu0.iq.issued_per_cycle::underflows            0      0.00%      0.00% # Number of insts issued each cycle
system.cpu0.iq.issued_per_cycle::0          956167762     55.29%     55.29% # Number of insts issued each cycle
system.cpu0.iq.issued_per_cycle::1          520909537     30.12%     85.41% # Number of insts issued each cycle
system.cpu0.iq.issued_per_cycle::2          183415314     10.61%     96.02% # Number of insts issued each cycle
system.cpu0.iq.issued_per_cycle::3           59157232      3.42%     99.44% # Number of insts issued each cycle
system.cpu0.iq.issued_per_cycle::4            8449700      0.49%     99.92% # Number of insts issued each cycle
system.cpu0.iq.issued_per_cycle::5             521940      0.03%     99.95% # Number of insts issued each cycle
system.cpu0.iq.issued_per_cycle::6             536150      0.03%     99.99% # Number of insts issued each cycle
system.cpu0.iq.issued_per_cycle::7             141435      0.01%     99.99% # Number of insts issued each cycle
system.cpu0.iq.issued_per_cycle::8             102089      0.01%    100.00% # Number of insts issued each cycle
system.cpu0.iq.issued_per_cycle::overflows            0      0.00%    100.00% # Number of insts issued each cycle
system.cpu0.iq.issued_per_cycle::min_value            0                       # Number of insts issued each cycle
system.cpu0.iq.issued_per_cycle::max_value            8                       # Number of insts issued each cycle
system.cpu0.iq.issued_per_cycle::total     1729401159                       # Number of insts issued each cycle
system.cpu0.iq.rate                          0.594426                       # Inst issue rate
system.cpu0.iq.vec_alu_accesses                     0                       # Number of vector alu accesses
system.cpu0.iq.vec_inst_queue_reads                 0                       # Number of vector instruction queue reads
system.cpu0.iq.vec_inst_queue_wakeup_accesses            0                       # Number of vector instruction queue wakeup accesses
system.cpu0.iq.vec_inst_queue_writes                0                       # Number of vector instruction queue writes
system.cpu0.itb.accesses                            0                       # DTB accesses
system.cpu0.itb.hits                                0                       # DTB hits
system.cpu0.itb.misses                              0                       # DTB misses
system.cpu0.itb.read_accesses                       0                       # DTB read accesses
system.cpu0.itb.read_hits                           0                       # DTB read hits
system.cpu0.itb.read_misses                         0                       # DTB read misses
system.cpu0.itb.write_accesses                      0                       # DTB write accesses
system.cpu0.itb.write_hits                          0                       # DTB write hits
system.cpu0.itb.write_misses                        0                       # DTB write misses
system.cpu0.memDep0.conflictingLoads         25736204                       # Number of conflicting loads.
system.cpu0.memDep0.conflictingStores         5312954                       # Number of conflicting stores.
system.cpu0.memDep0.insertedLoads           358264871                       # Number of loads inserted to the mem dependence unit.
system.cpu0.memDep0.insertedStores          136818790                       # Number of stores inserted to the mem dependence unit.
system.cpu0.misc_regfile_reads                   1501                       # number of misc regfile reads
system.cpu0.misc_regfile_writes                    22                       # number of misc regfile writes
system.cpu0.numCycles                      1861701607                       # number of cpu cycles simulated
system.cpu0.numWorkItemsCompleted                   0                       # number of work items this cpu completed
system.cpu0.numWorkItemsStarted                     0                       # number of work items this cpu started
system.cpu0.quiesceCycles                     2908768                       # Total number of cycles that CPU has spent quiesced or waiting for an interrupt
system.cpu0.rename.BlockCycles              254650480                       # Number of cycles rename is blocking
system.cpu0.rename.CommittedMaps            670490113                       # Number of HB maps that are committed
system.cpu0.rename.IQFullEvents              10829330                       # Number of times rename has blocked due to IQ full
system.cpu0.rename.IdleCycles               660104667                       # Number of cycles rename is idle
system.cpu0.rename.LQFullEvents               4668437                       # Number of times rename has blocked due to LQ full
system.cpu0.rename.ROBFullEvents                23047                       # Number of times rename has blocked due to ROB full
system.cpu0.rename.RenameLookups           1409090069                       # Number of register rename lookups that rename has made
system.cpu0.rename.RenamedInsts            1153473241                       # Number of instructions processed by rename
system.cpu0.rename.RenamedOperands          741911512                       # Number of destination operands rename has renamed
system.cpu0.rename.RunCycles                781256504                       # Number of cycles rename is running
system.cpu0.rename.SQFullEvents               6306525                       # Number of times rename has blocked due to SQ full
system.cpu0.rename.SquashCycles              10619777                       # Number of cycles rename is squashing
system.cpu0.rename.UnblockCycles             22640886                       # Number of cycles rename is unblocking
system.cpu0.rename.UndoneMaps                71421395                       # Number of HB maps that are undone due to squashing
system.cpu0.rename.fp_rename_lookups               53                       # Number of floating rename lookups
system.cpu0.rename.int_rename_lookups      1409090016                       # Number of integer rename lookups
system.cpu0.rename.serializeStallCycles        128845                       # count of cycles rename stalled for serializing inst
system.cpu0.rename.serializingInsts              4684                       # count of serializing insts renamed
system.cpu0.rename.skidInsts                 23321819                       # count of insts added to the skid buffer
system.cpu0.rename.tempSerializingInsts          4676                       # count of temporary serializing insts renamed
system.cpu0.rob.rob_reads                  2816058073                       # The number of ROB reads
system.cpu0.rob.rob_writes                 2283060163                       # The number of ROB writes
system.cpu0.timesIdled                       20025592                       # Number of times that the entire CPU went into an idle state and unscheduled itself
system.cpu0.workload.numSyscalls                 1465                       # Number of system calls
system.cpu1.branchPred.BTBCorrect                   0                       # Number of correct BTB predictions (this stat may not work properly.
system.cpu1.branchPred.BTBHitPct            95.016485                       # BTB Hit Percentage
system.cpu1.branchPred.BTBHits                8611421                       # Number of BTB hits
system.cpu1.branchPred.BTBLookups             9063081                       # Number of BTB lookups
system.cpu1.branchPred.RASInCorrect                 0                       # Number of incorrect RAS predictions.
system.cpu1.branchPred.condIncorrect          1551211                       # Number of conditional branches incorrect
system.cpu1.branchPred.condPredicted         16766332                       # Number of conditional branches predicted
system.cpu1.branchPred.indirectHits            291996                       # Number of indirect target hits.
system.cpu1.branchPred.indirectLookups         429043                       # Number of indirect predictor lookups.
system.cpu1.branchPred.indirectMisses          137047                       # Number of indirect misses.
system.cpu1.branchPred.lookups               18292301                       # Number of BP lookups
system.cpu1.branchPred.usedRAS                      0                       # Number of times the RAS was used to get a target.
system.cpu1.branchPredindirectMispredicted         4466                       # Number of mispredicted indirect branches.
system.cpu1.commit.amos                       1811197                       # Number of atomic instructions committed
system.cpu1.commit.branchMispredicts           893942                       # The number of times a branch was mispredicted
system.cpu1.commit.branches                  12193929                       # Number of branches committed
system.cpu1.commit.bw_lim_events               943104                       # number cycles where commit BW limit reached
system.cpu1.commit.commitNonSpecStalls        5434243                       # The number of times commit has been forced to stall to communicate backwards
system.cpu1.commit.commitSquashedInsts       16770926                       # The number of squashed insts skipped by commit
system.cpu1.commit.committedInsts            55033610                       # Number of instructions committed
system.cpu1.commit.committedOps              56844978                       # Number of ops (including micro ops) committed
system.cpu1.commit.committed_per_cycle::samples    309421688                       # Number of insts commited each cycle
system.cpu1.commit.committed_per_cycle::mean     0.183714                       # Number of insts commited each cycle
system.cpu1.commit.committed_per_cycle::stdev     0.815665                       # Number of insts commited each cycle
system.cpu1.commit.committed_per_cycle::underflows            0      0.00%      0.00% # Number of insts commited each cycle
system.cpu1.commit.committed_per_cycle::0    284664926     92.00%     92.00% # Number of insts commited each cycle
system.cpu1.commit.committed_per_cycle::1     12559144      4.06%     96.06% # Number of insts commited each cycle
system.cpu1.commit.committed_per_cycle::2      4283894      1.38%     97.44% # Number of insts commited each cycle
system.cpu1.commit.committed_per_cycle::3      3887937      1.26%     98.70% # Number of insts commited each cycle
system.cpu1.commit.committed_per_cycle::4       906188      0.29%     98.99% # Number of insts commited each cycle
system.cpu1.commit.committed_per_cycle::5       336307      0.11%     99.10% # Number of insts commited each cycle
system.cpu1.commit.committed_per_cycle::6      1678200      0.54%     99.64% # Number of insts commited each cycle
system.cpu1.commit.committed_per_cycle::7       161988      0.05%     99.70% # Number of insts commited each cycle
system.cpu1.commit.committed_per_cycle::8       943104      0.30%    100.00% # Number of insts commited each cycle
system.cpu1.commit.committed_per_cycle::overflows            0      0.00%    100.00% # Number of insts commited each cycle
system.cpu1.commit.committed_per_cycle::min_value            0                       # Number of insts commited each cycle
system.cpu1.commit.committed_per_cycle::max_value            8                       # Number of insts commited each cycle
system.cpu1.commit.committed_per_cycle::total    309421688                       # Number of insts commited each cycle
system.cpu1.commit.fp_insts                        12                       # Number of committed floating point instructions.
system.cpu1.commit.function_calls              501120                       # Number of function calls committed.
system.cpu1.commit.int_insts                 52931690                       # Number of committed integer instructions.
system.cpu1.commit.loads                     16119064                       # Number of loads committed
system.cpu1.commit.membars                    3622515                       # Number of memory barriers committed
system.cpu1.commit.op_class_0::No_OpClass      3622515      6.37%      6.37% # Class of committed instruction
system.cpu1.commit.op_class_0::IntAlu        31982210     56.26%     62.63% # Class of committed instruction
system.cpu1.commit.op_class_0::IntMult             43      0.00%     62.63% # Class of committed instruction
system.cpu1.commit.op_class_0::IntDiv              86      0.00%     62.64% # Class of committed instruction
system.cpu1.commit.op_class_0::FloatAdd             0      0.00%     62.64% # Class of committed instruction
system.cpu1.commit.op_class_0::FloatCmp             0      0.00%     62.64% # Class of committed instruction
system.cpu1.commit.op_class_0::FloatCvt             0      0.00%     62.64% # Class of committed instruction
system.cpu1.commit.op_class_0::FloatMult            0      0.00%     62.64% # Class of committed instruction
system.cpu1.commit.op_class_0::FloatMultAcc            0      0.00%     62.64% # Class of committed instruction
system.cpu1.commit.op_class_0::FloatDiv             0      0.00%     62.64% # Class of committed instruction
system.cpu1.commit.op_class_0::FloatMisc            0      0.00%     62.64% # Class of committed instruction
system.cpu1.commit.op_class_0::FloatSqrt            0      0.00%     62.64% # Class of committed instruction
system.cpu1.commit.op_class_0::SimdAdd              0      0.00%     62.64% # Class of committed instruction
system.cpu1.commit.op_class_0::SimdAddAcc            0      0.00%     62.64% # Class of committed instruction
system.cpu1.commit.op_class_0::SimdAlu              0      0.00%     62.64% # Class of committed instruction
system.cpu1.commit.op_class_0::SimdCmp              0      0.00%     62.64% # Class of committed instruction
system.cpu1.commit.op_class_0::SimdCvt              0      0.00%     62.64% # Class of committed instruction
system.cpu1.commit.op_class_0::SimdMisc             0      0.00%     62.64% # Class of committed instruction
system.cpu1.commit.op_class_0::SimdMult             0      0.00%     62.64% # Class of committed instruction
system.cpu1.commit.op_class_0::SimdMultAcc            0      0.00%     62.64% # Class of committed instruction
system.cpu1.commit.op_class_0::SimdShift            0      0.00%     62.64% # Class of committed instruction
system.cpu1.commit.op_class_0::SimdShiftAcc            0      0.00%     62.64% # Class of committed instruction
system.cpu1.commit.op_class_0::SimdDiv              0      0.00%     62.64% # Class of committed instruction
system.cpu1.commit.op_class_0::SimdSqrt             0      0.00%     62.64% # Class of committed instruction
system.cpu1.commit.op_class_0::SimdFloatAdd            0      0.00%     62.64% # Class of committed instruction
system.cpu1.commit.op_class_0::SimdFloatAlu            0      0.00%     62.64% # Class of committed instruction
system.cpu1.commit.op_class_0::SimdFloatCmp            0      0.00%     62.64% # Class of committed instruction
system.cpu1.commit.op_class_0::SimdFloatCvt            0      0.00%     62.64% # Class of committed instruction
system.cpu1.commit.op_class_0::SimdFloatDiv            0      0.00%     62.64% # Class of committed instruction
system.cpu1.commit.op_class_0::SimdFloatMisc            0      0.00%     62.64% # Class of committed instruction
system.cpu1.commit.op_class_0::SimdFloatMult            0      0.00%     62.64% # Class of committed instruction
system.cpu1.commit.op_class_0::SimdFloatMultAcc            0      0.00%     62.64% # Class of committed instruction
system.cpu1.commit.op_class_0::SimdFloatSqrt            0      0.00%     62.64% # Class of committed instruction
system.cpu1.commit.op_class_0::SimdReduceAdd            0      0.00%     62.64% # Class of committed instruction
system.cpu1.commit.op_class_0::SimdReduceAlu            0      0.00%     62.64% # Class of committed instruction
system.cpu1.commit.op_class_0::SimdReduceCmp            0      0.00%     62.64% # Class of committed instruction
system.cpu1.commit.op_class_0::SimdFloatReduceAdd            0      0.00%     62.64% # Class of committed instruction
system.cpu1.commit.op_class_0::SimdFloatReduceCmp            0      0.00%     62.64% # Class of committed instruction
system.cpu1.commit.op_class_0::SimdAes              0      0.00%     62.64% # Class of committed instruction
system.cpu1.commit.op_class_0::SimdAesMix            0      0.00%     62.64% # Class of committed instruction
system.cpu1.commit.op_class_0::SimdSha1Hash            0      0.00%     62.64% # Class of committed instruction
system.cpu1.commit.op_class_0::SimdSha1Hash2            0      0.00%     62.64% # Class of committed instruction
system.cpu1.commit.op_class_0::SimdSha256Hash            0      0.00%     62.64% # Class of committed instruction
system.cpu1.commit.op_class_0::SimdSha256Hash2            0      0.00%     62.64% # Class of committed instruction
system.cpu1.commit.op_class_0::SimdShaSigma2            0      0.00%     62.64% # Class of committed instruction
system.cpu1.commit.op_class_0::SimdShaSigma3            0      0.00%     62.64% # Class of committed instruction
system.cpu1.commit.op_class_0::SimdPredAlu            0      0.00%     62.64% # Class of committed instruction
system.cpu1.commit.op_class_0::MemRead       17930261     31.54%     94.18% # Class of committed instruction
system.cpu1.commit.op_class_0::MemWrite       3309851      5.82%    100.00% # Class of committed instruction
system.cpu1.commit.op_class_0::FloatMemRead            0      0.00%    100.00% # Class of committed instruction
system.cpu1.commit.op_class_0::FloatMemWrite           12      0.00%    100.00% # Class of committed instruction
system.cpu1.commit.op_class_0::IprAccess            0      0.00%    100.00% # Class of committed instruction
system.cpu1.commit.op_class_0::InstPrefetch            0      0.00%    100.00% # Class of committed instruction
system.cpu1.commit.op_class_0::total         56844978                       # Class of committed instruction
system.cpu1.commit.refs                      21240124                       # Number of memory references committed
system.cpu1.commit.swp_count                        0                       # Number of s/w prefetches committed
system.cpu1.commit.vec_insts                        0                       # Number of committed Vector instructions.
system.cpu1.committedInsts                   55033610                       # Number of Instructions Simulated
system.cpu1.committedOps                     56844978                       # Number of Ops (including micro ops) Simulated
system.cpu1.cpi                              5.689101                       # CPI: Cycles Per Instruction
system.cpu1.cpi_total                        5.689101                       # CPI: Total CPI of All Threads
system.cpu1.decode.BlockedCycles            267098723                       # Number of cycles decode is blocked
system.cpu1.decode.BranchMispred               664186                       # Number of times decode detected a branch misprediction
system.cpu1.decode.BranchResolved             7849175                       # Number of times decode resolved a branch
system.cpu1.decode.DecodedInsts              78079668                       # Number of instructions handled by decode
system.cpu1.decode.IdleCycles                12731257                       # Number of cycles decode is idle
system.cpu1.decode.RunCycles                 27750246                       # Number of cycles decode is running
system.cpu1.decode.SquashCycles                894307                       # Number of cycles decode is squashing
system.cpu1.decode.SquashedInsts               997389                       # Number of squashed instructions handled by decode
system.cpu1.decode.UnblockCycles              3644175                       # Number of cycles decode is unblocking
system.cpu1.dtb.accesses                            0                       # DTB accesses
system.cpu1.dtb.hits                                0                       # DTB hits
system.cpu1.dtb.misses                              0                       # DTB misses
system.cpu1.dtb.read_accesses                       0                       # DTB read accesses
system.cpu1.dtb.read_hits                           0                       # DTB read hits
system.cpu1.dtb.read_misses                         0                       # DTB read misses
system.cpu1.dtb.write_accesses                      0                       # DTB write accesses
system.cpu1.dtb.write_hits                          0                       # DTB write hits
system.cpu1.dtb.write_misses                        0                       # DTB write misses
system.cpu1.fetch.Branches                   18292301                       # Number of branches that fetch encountered
system.cpu1.fetch.CacheLines                 12895821                       # Number of cache lines fetched
system.cpu1.fetch.Cycles                    296310944                       # Number of cycles fetch has run and was not squashing or blocked
system.cpu1.fetch.IcacheSquashes               121470                       # Number of outstanding Icache misses that were squashed
system.cpu1.fetch.Insts                      87862291                       # Number of instructions fetch has processed
system.cpu1.fetch.MiscStallCycles                  43                       # Number of cycles fetch has spent waiting on interrupts, or bad addresses, or out of MSHRs
system.cpu1.fetch.PendingTrapStallCycles          255                       # Number of stall cycles due to pending traps
system.cpu1.fetch.SquashCycles                3103236                       # Number of cycles fetch has spent squashing
system.cpu1.fetch.branchRate                 0.058425                       # Number of branch fetches per cycle
system.cpu1.fetch.icacheStallCycles          14255848                       # Number of cycles fetch is stalled on an Icache miss
system.cpu1.fetch.predictedBranches           8903417                       # Number of branches that fetch has predicted taken
system.cpu1.fetch.rate                       0.280628                       # Number of inst fetches per cycle
system.cpu1.fetch.rateDist::samples         312118708                       # Number of instructions fetched each cycle (Total)
system.cpu1.fetch.rateDist::mean             0.292284                       # Number of instructions fetched each cycle (Total)
system.cpu1.fetch.rateDist::stdev            0.774667                       # Number of instructions fetched each cycle (Total)
system.cpu1.fetch.rateDist::underflows              0      0.00%      0.00% # Number of instructions fetched each cycle (Total)
system.cpu1.fetch.rateDist::0               258902467     82.95%     82.95% # Number of instructions fetched each cycle (Total)
system.cpu1.fetch.rateDist::1                30351195      9.72%     92.67% # Number of instructions fetched each cycle (Total)
system.cpu1.fetch.rateDist::2                13202163      4.23%     96.90% # Number of instructions fetched each cycle (Total)
system.cpu1.fetch.rateDist::3                 6149586      1.97%     98.87% # Number of instructions fetched each cycle (Total)
system.cpu1.fetch.rateDist::4                 2294000      0.73%     99.61% # Number of instructions fetched each cycle (Total)
system.cpu1.fetch.rateDist::5                  475477      0.15%     99.76% # Number of instructions fetched each cycle (Total)
system.cpu1.fetch.rateDist::6                  740419      0.24%    100.00% # Number of instructions fetched each cycle (Total)
system.cpu1.fetch.rateDist::7                      18      0.00%    100.00% # Number of instructions fetched each cycle (Total)
system.cpu1.fetch.rateDist::8                    3383      0.00%    100.00% # Number of instructions fetched each cycle (Total)
system.cpu1.fetch.rateDist::overflows               0      0.00%    100.00% # Number of instructions fetched each cycle (Total)
system.cpu1.fetch.rateDist::min_value               0                       # Number of instructions fetched each cycle (Total)
system.cpu1.fetch.rateDist::max_value               8                       # Number of instructions fetched each cycle (Total)
system.cpu1.fetch.rateDist::total           312118708                       # Number of instructions fetched each cycle (Total)
system.cpu1.fp_regfile_reads                       12                       # number of floating regfile reads
system.cpu1.idleCycles                         973038                       # Total number of cycles that the CPU has spent unscheduled due to idling
system.cpu1.iew.branchMispredicts              933890                       # Number of branch mispredicts detected at execute
system.cpu1.iew.exec_branches                14147445                       # Number of branches executed
system.cpu1.iew.exec_nop                            0                       # number of nop insts executed
system.cpu1.iew.exec_rate                    0.198427                       # Inst execution rate
system.cpu1.iew.exec_refs                    22105779                       # number of memory reference insts executed
system.cpu1.iew.exec_stores                   5187265                       # Number of stores executed
system.cpu1.iew.exec_swp                            0                       # number of swp insts executed
system.cpu1.iew.iewBlockCycles              233565148                       # Number of cycles IEW is blocking
system.cpu1.iew.iewDispLoadInsts             21017281                       # Number of dispatched load instructions
system.cpu1.iew.iewDispNonSpecInsts           2535238                       # Number of dispatched non-speculative instructions
system.cpu1.iew.iewDispSquashedInsts          1444755                       # Number of squashed instructions skipped by dispatch
system.cpu1.iew.iewDispStoreInsts             6702028                       # Number of dispatched store instructions
system.cpu1.iew.iewDispatchedInsts           73609731                       # Number of instructions dispatched to IQ
system.cpu1.iew.iewExecLoadInsts             16918514                       # Number of load instructions executed
system.cpu1.iew.iewExecSquashedInsts           657114                       # Number of squashed instructions skipped in execute
system.cpu1.iew.iewExecutedInsts             62125882                       # Number of executed instructions
system.cpu1.iew.iewIQFullEvents               1718592                       # Number of times the IQ has become full, causing a stall
system.cpu1.iew.iewIdleCycles                       0                       # Number of cycles IEW is idle
system.cpu1.iew.iewLSQFullEvents               978581                       # Number of times the LSQ has become full, causing a stall
system.cpu1.iew.iewSquashCycles                894307                       # Number of cycles IEW is squashing
system.cpu1.iew.iewUnblockCycles              4602648                       # Number of cycles IEW is unblocking
system.cpu1.iew.lsq.thread0.blockedLoads            0                       # Number of blocked loads due to partial load-store forwarding
system.cpu1.iew.lsq.thread0.cacheBlocked        13096                       # Number of times an access to memory failed due to the cache being blocked
system.cpu1.iew.lsq.thread0.forwLoads          218763                       # Number of loads that had data forwarded from stores
system.cpu1.iew.lsq.thread0.ignoredResponses         7385                       # Number of memory responses ignored because the instruction is squashed
system.cpu1.iew.lsq.thread0.invAddrLoads            0                       # Number of loads ignored due to an invalid address
system.cpu1.iew.lsq.thread0.invAddrSwpfs            0                       # Number of software prefetches ignored due to an invalid address
system.cpu1.iew.lsq.thread0.memOrderViolation          389                       # Number of memory ordering violations
system.cpu1.iew.lsq.thread0.rescheduledLoads         1333                       # Number of loads that were rescheduled
system.cpu1.iew.lsq.thread0.squashedLoads      4898217                       # Number of loads squashed
system.cpu1.iew.lsq.thread0.squashedStores      1580968                       # Number of stores squashed
system.cpu1.iew.memOrderViolationEvents           389                       # Number of memory order violations
system.cpu1.iew.predictedNotTakenIncorrect       187682                       # Number of branches that were predicted not taken incorrectly
system.cpu1.iew.predictedTakenIncorrect        746208                       # Number of branches that were predicted taken incorrectly
system.cpu1.iew.wb_consumers                 34976923                       # num instructions consuming a value
system.cpu1.iew.wb_count                     61833857                       # cumulative count of insts written-back
system.cpu1.iew.wb_fanout                    0.856917                       # average fanout of values written-back
system.cpu1.iew.wb_producers                 29972317                       # num instructions producing a value
system.cpu1.iew.wb_rate                      0.197494                       # insts written-back per cycle
system.cpu1.iew.wb_sent                      61846121                       # cumulative count of insts sent to commit
system.cpu1.int_regfile_reads                77531047                       # number of integer regfile reads
system.cpu1.int_regfile_writes               40967018                       # number of integer regfile writes
system.cpu1.ipc                              0.175775                       # IPC: Instructions Per Cycle
system.cpu1.ipc_total                        0.175775                       # IPC: Total IPC of All Threads
system.cpu1.iq.FU_type_0::No_OpClass          3622652      5.77%      5.77% # Type of FU issued
system.cpu1.iq.FU_type_0::IntAlu             36957953     58.87%     64.64% # Type of FU issued
system.cpu1.iq.FU_type_0::IntMult                  45      0.00%     64.64% # Type of FU issued
system.cpu1.iq.FU_type_0::IntDiv                   86      0.00%     64.64% # Type of FU issued
system.cpu1.iq.FU_type_0::FloatAdd                  0      0.00%     64.64% # Type of FU issued
system.cpu1.iq.FU_type_0::FloatCmp                  0      0.00%     64.64% # Type of FU issued
system.cpu1.iq.FU_type_0::FloatCvt                  0      0.00%     64.64% # Type of FU issued
system.cpu1.iq.FU_type_0::FloatMult                 0      0.00%     64.64% # Type of FU issued
system.cpu1.iq.FU_type_0::FloatMultAcc              0      0.00%     64.64% # Type of FU issued
system.cpu1.iq.FU_type_0::FloatDiv                  0      0.00%     64.64% # Type of FU issued
system.cpu1.iq.FU_type_0::FloatMisc                 0      0.00%     64.64% # Type of FU issued
system.cpu1.iq.FU_type_0::FloatSqrt                 0      0.00%     64.64% # Type of FU issued
system.cpu1.iq.FU_type_0::SimdAdd                   0      0.00%     64.64% # Type of FU issued
system.cpu1.iq.FU_type_0::SimdAddAcc                0      0.00%     64.64% # Type of FU issued
system.cpu1.iq.FU_type_0::SimdAlu                   0      0.00%     64.64% # Type of FU issued
system.cpu1.iq.FU_type_0::SimdCmp                   0      0.00%     64.64% # Type of FU issued
system.cpu1.iq.FU_type_0::SimdCvt                   0      0.00%     64.64% # Type of FU issued
system.cpu1.iq.FU_type_0::SimdMisc                  0      0.00%     64.64% # Type of FU issued
system.cpu1.iq.FU_type_0::SimdMult                  0      0.00%     64.64% # Type of FU issued
system.cpu1.iq.FU_type_0::SimdMultAcc               0      0.00%     64.64% # Type of FU issued
system.cpu1.iq.FU_type_0::SimdShift                 0      0.00%     64.64% # Type of FU issued
system.cpu1.iq.FU_type_0::SimdShiftAcc              0      0.00%     64.64% # Type of FU issued
system.cpu1.iq.FU_type_0::SimdDiv                   0      0.00%     64.64% # Type of FU issued
system.cpu1.iq.FU_type_0::SimdSqrt                  0      0.00%     64.64% # Type of FU issued
system.cpu1.iq.FU_type_0::SimdFloatAdd              0      0.00%     64.64% # Type of FU issued
system.cpu1.iq.FU_type_0::SimdFloatAlu              0      0.00%     64.64% # Type of FU issued
system.cpu1.iq.FU_type_0::SimdFloatCmp              0      0.00%     64.64% # Type of FU issued
system.cpu1.iq.FU_type_0::SimdFloatCvt              0      0.00%     64.64% # Type of FU issued
system.cpu1.iq.FU_type_0::SimdFloatDiv              0      0.00%     64.64% # Type of FU issued
system.cpu1.iq.FU_type_0::SimdFloatMisc             0      0.00%     64.64% # Type of FU issued
system.cpu1.iq.FU_type_0::SimdFloatMult             0      0.00%     64.64% # Type of FU issued
system.cpu1.iq.FU_type_0::SimdFloatMultAcc            0      0.00%     64.64% # Type of FU issued
system.cpu1.iq.FU_type_0::SimdFloatSqrt             0      0.00%     64.64% # Type of FU issued
system.cpu1.iq.FU_type_0::SimdReduceAdd             0      0.00%     64.64% # Type of FU issued
system.cpu1.iq.FU_type_0::SimdReduceAlu             0      0.00%     64.64% # Type of FU issued
system.cpu1.iq.FU_type_0::SimdReduceCmp             0      0.00%     64.64% # Type of FU issued
system.cpu1.iq.FU_type_0::SimdFloatReduceAdd            0      0.00%     64.64% # Type of FU issued
system.cpu1.iq.FU_type_0::SimdFloatReduceCmp            0      0.00%     64.64% # Type of FU issued
system.cpu1.iq.FU_type_0::SimdAes                   0      0.00%     64.64% # Type of FU issued
system.cpu1.iq.FU_type_0::SimdAesMix                0      0.00%     64.64% # Type of FU issued
system.cpu1.iq.FU_type_0::SimdSha1Hash              0      0.00%     64.64% # Type of FU issued
system.cpu1.iq.FU_type_0::SimdSha1Hash2             0      0.00%     64.64% # Type of FU issued
system.cpu1.iq.FU_type_0::SimdSha256Hash            0      0.00%     64.64% # Type of FU issued
system.cpu1.iq.FU_type_0::SimdSha256Hash2            0      0.00%     64.64% # Type of FU issued
system.cpu1.iq.FU_type_0::SimdShaSigma2             0      0.00%     64.64% # Type of FU issued
system.cpu1.iq.FU_type_0::SimdShaSigma3             0      0.00%     64.64% # Type of FU issued
system.cpu1.iq.FU_type_0::SimdPredAlu               0      0.00%     64.64% # Type of FU issued
system.cpu1.iq.FU_type_0::MemRead            18814120     29.97%     94.60% # Type of FU issued
system.cpu1.iq.FU_type_0::MemWrite            3388128      5.40%    100.00% # Type of FU issued
system.cpu1.iq.FU_type_0::FloatMemRead              0      0.00%    100.00% # Type of FU issued
system.cpu1.iq.FU_type_0::FloatMemWrite            12      0.00%    100.00% # Type of FU issued
system.cpu1.iq.FU_type_0::IprAccess                 0      0.00%    100.00% # Type of FU issued
system.cpu1.iq.FU_type_0::InstPrefetch              0      0.00%    100.00% # Type of FU issued
system.cpu1.iq.FU_type_0::total              62782996                       # Type of FU issued
system.cpu1.iq.fp_alu_accesses                     16                       # Number of floating point alu accesses
system.cpu1.iq.fp_inst_queue_reads                 28                       # Number of floating instruction queue reads
system.cpu1.iq.fp_inst_queue_wakeup_accesses           12                       # Number of floating instruction queue wakeup accesses
system.cpu1.iq.fp_inst_queue_writes                12                       # Number of floating instruction queue writes
system.cpu1.iq.fu_busy_cnt                    1776149                       # FU busy when requested
system.cpu1.iq.fu_busy_rate                  0.028290                       # FU busy rate (busy events/executed inst)
system.cpu1.iq.fu_full::No_OpClass                  0      0.00%      0.00% # attempts to use FU when none available
system.cpu1.iq.fu_full::IntAlu                 210726     11.86%     11.86% # attempts to use FU when none available
system.cpu1.iq.fu_full::IntMult                     0      0.00%     11.86% # attempts to use FU when none available
system.cpu1.iq.fu_full::IntDiv                      0      0.00%     11.86% # attempts to use FU when none available
system.cpu1.iq.fu_full::FloatAdd                    0      0.00%     11.86% # attempts to use FU when none available
system.cpu1.iq.fu_full::FloatCmp                    0      0.00%     11.86% # attempts to use FU when none available
system.cpu1.iq.fu_full::FloatCvt                    0      0.00%     11.86% # attempts to use FU when none available
system.cpu1.iq.fu_full::FloatMult                   0      0.00%     11.86% # attempts to use FU when none available
system.cpu1.iq.fu_full::FloatMultAcc                0      0.00%     11.86% # attempts to use FU when none available
system.cpu1.iq.fu_full::FloatDiv                    0      0.00%     11.86% # attempts to use FU when none available
system.cpu1.iq.fu_full::FloatMisc                   0      0.00%     11.86% # attempts to use FU when none available
system.cpu1.iq.fu_full::FloatSqrt                   0      0.00%     11.86% # attempts to use FU when none available
system.cpu1.iq.fu_full::SimdAdd                     0      0.00%     11.86% # attempts to use FU when none available
system.cpu1.iq.fu_full::SimdAddAcc                  0      0.00%     11.86% # attempts to use FU when none available
system.cpu1.iq.fu_full::SimdAlu                     0      0.00%     11.86% # attempts to use FU when none available
system.cpu1.iq.fu_full::SimdCmp                     0      0.00%     11.86% # attempts to use FU when none available
system.cpu1.iq.fu_full::SimdCvt                     0      0.00%     11.86% # attempts to use FU when none available
system.cpu1.iq.fu_full::SimdMisc                    0      0.00%     11.86% # attempts to use FU when none available
system.cpu1.iq.fu_full::SimdMult                    0      0.00%     11.86% # attempts to use FU when none available
system.cpu1.iq.fu_full::SimdMultAcc                 0      0.00%     11.86% # attempts to use FU when none available
system.cpu1.iq.fu_full::SimdShift                   0      0.00%     11.86% # attempts to use FU when none available
system.cpu1.iq.fu_full::SimdShiftAcc                0      0.00%     11.86% # attempts to use FU when none available
system.cpu1.iq.fu_full::SimdDiv                     0      0.00%     11.86% # attempts to use FU when none available
system.cpu1.iq.fu_full::SimdSqrt                    0      0.00%     11.86% # attempts to use FU when none available
system.cpu1.iq.fu_full::SimdFloatAdd                0      0.00%     11.86% # attempts to use FU when none available
system.cpu1.iq.fu_full::SimdFloatAlu                0      0.00%     11.86% # attempts to use FU when none available
system.cpu1.iq.fu_full::SimdFloatCmp                0      0.00%     11.86% # attempts to use FU when none available
system.cpu1.iq.fu_full::SimdFloatCvt                0      0.00%     11.86% # attempts to use FU when none available
system.cpu1.iq.fu_full::SimdFloatDiv                0      0.00%     11.86% # attempts to use FU when none available
system.cpu1.iq.fu_full::SimdFloatMisc               0      0.00%     11.86% # attempts to use FU when none available
system.cpu1.iq.fu_full::SimdFloatMult               0      0.00%     11.86% # attempts to use FU when none available
system.cpu1.iq.fu_full::SimdFloatMultAcc            0      0.00%     11.86% # attempts to use FU when none available
system.cpu1.iq.fu_full::SimdFloatSqrt               0      0.00%     11.86% # attempts to use FU when none available
system.cpu1.iq.fu_full::SimdReduceAdd               0      0.00%     11.86% # attempts to use FU when none available
system.cpu1.iq.fu_full::SimdReduceAlu               0      0.00%     11.86% # attempts to use FU when none available
system.cpu1.iq.fu_full::SimdReduceCmp               0      0.00%     11.86% # attempts to use FU when none available
system.cpu1.iq.fu_full::SimdFloatReduceAdd            0      0.00%     11.86% # attempts to use FU when none available
system.cpu1.iq.fu_full::SimdFloatReduceCmp            0      0.00%     11.86% # attempts to use FU when none available
system.cpu1.iq.fu_full::SimdAes                     0      0.00%     11.86% # attempts to use FU when none available
system.cpu1.iq.fu_full::SimdAesMix                  0      0.00%     11.86% # attempts to use FU when none available
system.cpu1.iq.fu_full::SimdSha1Hash                0      0.00%     11.86% # attempts to use FU when none available
system.cpu1.iq.fu_full::SimdSha1Hash2               0      0.00%     11.86% # attempts to use FU when none available
system.cpu1.iq.fu_full::SimdSha256Hash              0      0.00%     11.86% # attempts to use FU when none available
system.cpu1.iq.fu_full::SimdSha256Hash2             0      0.00%     11.86% # attempts to use FU when none available
system.cpu1.iq.fu_full::SimdShaSigma2               0      0.00%     11.86% # attempts to use FU when none available
system.cpu1.iq.fu_full::SimdShaSigma3               0      0.00%     11.86% # attempts to use FU when none available
system.cpu1.iq.fu_full::SimdPredAlu                 0      0.00%     11.86% # attempts to use FU when none available
system.cpu1.iq.fu_full::MemRead               1424477     80.20%     92.06% # attempts to use FU when none available
[...]
system.cpu1.dcache.WriteReq_hits::.cpu1.data      1509832                       # number of WriteReq hits
system.cpu1.dcache.WriteReq_hits::total       1509832                       # number of WriteReq hits
system.cpu1.dcache.WriteReq_misses::.cpu1.data       355194                       # number of WriteReq misses
system.cpu1.dcache.WriteReq_misses::total       355194                       # number of WriteReq misses
system.cpu1.dcache.WriteReq_miss_latency::.cpu1.data  15998153359                       # number of WriteReq miss cycles
system.cpu1.dcache.WriteReq_miss_latency::total  15998153359                       # number of WriteReq miss cycles
system.cpu1.dcache.WriteReq_accesses::.cpu1.data      1865026                       # number of WriteReq accesses(hits+misses)
system.cpu1.dcache.WriteReq_accesses::total      1865026                       # number of WriteReq accesses(hits+misses)
system.cpu1.dcache.WriteReq_miss_rate::.cpu1.data     0.190450                       # miss rate for WriteReq accesses
system.cpu1.dcache.WriteReq_miss_rate::total     0.190450                       # miss rate for WriteReq accesses
system.cpu1.dcache.WriteReq_avg_miss_latency::.cpu1.data 45040.606989                       # average WriteReq miss latency
system.cpu1.dcache.WriteReq_avg_miss_latency::total 45040.606989                       # average WriteReq miss latency
system.cpu1.dcache.WriteReq_mshr_hits::.cpu1.data       264822                       # number of WriteReq MSHR hits
system.cpu1.dcache.WriteReq_mshr_hits::total       264822                       # number of WriteReq MSHR hits
system.cpu1.dcache.WriteReq_mshr_misses::.cpu1.data        90372                       # number of WriteReq MSHR misses
system.cpu1.dcache.WriteReq_mshr_misses::total        90372                       # number of WriteReq MSHR misses
system.cpu1.dcache.WriteReq_mshr_miss_latency::.cpu1.data   2801911854                       # number of WriteReq MSHR miss cycles
system.cpu1.dcache.WriteReq_mshr_miss_latency::total   2801911854                       # number of WriteReq MSHR miss cycles
system.cpu1.dcache.WriteReq_mshr_miss_rate::.cpu1.data     0.048456                       # mshr miss rate for WriteReq accesses
system.cpu1.dcache.WriteReq_mshr_miss_rate::total     0.048456                       # mshr miss rate for WriteReq accesses
system.cpu1.dcache.WriteReq_avg_mshr_miss_latency::.cpu1.data 31004.203227                       # average WriteReq mshr miss latency
system.cpu1.dcache.WriteReq_avg_mshr_miss_latency::total 31004.203227                       # average WriteReq mshr miss latency
system.cpu1.dcache.LoadLockedReq_hits::.cpu1.data        66784                       # number of LoadLockedReq hits
system.cpu1.dcache.LoadLockedReq_hits::total        66784                       # number of LoadLockedReq hits
system.cpu1.dcache.LoadLockedReq_misses::.cpu1.data          758                       # number of LoadLockedReq misses
system.cpu1.dcache.LoadLockedReq_misses::total          758                       # number of LoadLockedReq misses
system.cpu1.dcache.LoadLockedReq_miss_latency::.cpu1.data     38738500                       # number of LoadLockedReq miss cycles
system.cpu1.dcache.LoadLockedReq_miss_latency::total     38738500                       # number of LoadLockedReq miss cycles
system.cpu1.dcache.LoadLockedReq_accesses::.cpu1.data        67542                       # number of LoadLockedReq accesses(hits+misses)
system.cpu1.dcache.LoadLockedReq_accesses::total        67542                       # number of LoadLockedReq accesses(hits+misses)
system.cpu1.dcache.LoadLockedReq_miss_rate::.cpu1.data     0.011223                       # miss rate for LoadLockedReq accesses
system.cpu1.dcache.LoadLockedReq_miss_rate::total     0.011223                       # miss rate for LoadLockedReq accesses
system.cpu1.dcache.LoadLockedReq_avg_miss_latency::.cpu1.data 51106.200528                       # average LoadLockedReq miss latency
system.cpu1.dcache.LoadLockedReq_avg_miss_latency::total 51106.200528                       # average LoadLockedReq miss latency
system.cpu1.dcache.LoadLockedReq_mshr_hits::.cpu1.data          196                       # number of LoadLockedReq MSHR hits
system.cpu1.dcache.LoadLockedReq_mshr_hits::total          196                       # number of LoadLockedReq MSHR hits
system.cpu1.dcache.LoadLockedReq_mshr_misses::.cpu1.data          562                       # number of LoadLockedReq MSHR misses
system.cpu1.dcache.LoadLockedReq_mshr_misses::total          562                       # number of LoadLockedReq MSHR misses
system.cpu1.dcache.LoadLockedReq_mshr_miss_latency::.cpu1.data     23359000                       # number of LoadLockedReq MSHR miss cycles
system.cpu1.dcache.LoadLockedReq_mshr_miss_latency::total     23359000                       # number of LoadLockedReq MSHR miss cycles
system.cpu1.dcache.LoadLockedReq_mshr_miss_rate::.cpu1.data     0.008321                       # mshr miss rate for LoadLockedReq accesses
system.cpu1.dcache.LoadLockedReq_mshr_miss_rate::total     0.008321                       # mshr miss rate for LoadLockedReq accesses
system.cpu1.dcache.LoadLockedReq_avg_mshr_miss_latency::.cpu1.data 41564.056940                       # average LoadLockedReq mshr miss latency
system.cpu1.dcache.LoadLockedReq_avg_mshr_miss_latency::total 41564.056940                       # average LoadLockedReq mshr miss latency
system.cpu1.dcache.StoreCondReq_hits::.cpu1.data        62656                       # number of StoreCondReq hits
system.cpu1.dcache.StoreCondReq_hits::total        62656                       # number of StoreCondReq hits
system.cpu1.dcache.StoreCondReq_misses::.cpu1.data         4570                       # number of StoreCondReq misses
system.cpu1.dcache.StoreCondReq_misses::total         4570                       # number of StoreCondReq misses
system.cpu1.dcache.StoreCondReq_miss_latency::.cpu1.data     23446500                       # number of StoreCondReq miss cycles
system.cpu1.dcache.StoreCondReq_miss_latency::total     23446500                       # number of StoreCondReq miss cycles
system.cpu1.dcache.StoreCondReq_accesses::.cpu1.data        67226                       # number of StoreCondReq accesses(hits+misses)
system.cpu1.dcache.StoreCondReq_accesses::total        67226                       # number of StoreCondReq accesses(hits+misses)
system.cpu1.dcache.StoreCondReq_miss_rate::.cpu1.data     0.067980                       # miss rate for StoreCondReq accesses
system.cpu1.dcache.StoreCondReq_miss_rate::total     0.067980                       # miss rate for StoreCondReq accesses
system.cpu1.dcache.StoreCondReq_avg_miss_latency::.cpu1.data  5130.525164                       # average StoreCondReq miss latency
system.cpu1.dcache.StoreCondReq_avg_miss_latency::total  5130.525164                       # average StoreCondReq miss latency
system.cpu1.dcache.StoreCondReq_mshr_misses::.cpu1.data         4506                       # number of StoreCondReq MSHR misses
system.cpu1.dcache.StoreCondReq_mshr_misses::total         4506                       # number of StoreCondReq MSHR misses
system.cpu1.dcache.StoreCondReq_mshr_miss_latency::.cpu1.data     18968500                       # number of StoreCondReq MSHR miss cycles
system.cpu1.dcache.StoreCondReq_mshr_miss_latency::total     18968500                       # number of StoreCondReq MSHR miss cycles
system.cpu1.dcache.StoreCondReq_mshr_miss_rate::.cpu1.data     0.067028                       # mshr miss rate for StoreCondReq accesses
system.cpu1.dcache.StoreCondReq_mshr_miss_rate::total     0.067028                       # mshr miss rate for StoreCondReq accesses
system.cpu1.dcache.StoreCondReq_avg_mshr_miss_latency::.cpu1.data  4209.609410                       # average StoreCondReq mshr miss latency
system.cpu1.dcache.StoreCondReq_avg_mshr_miss_latency::total  4209.609410                       # average StoreCondReq mshr miss latency
system.cpu1.dcache.StoreCondFailReq_miss_latency::.cpu1.data       386500                       # number of StoreCondFailReq miss cycles
system.cpu1.dcache.StoreCondFailReq_miss_latency::total       386500                       # number of StoreCondFailReq miss cycles
system.cpu1.dcache.StoreCondFailReq_avg_miss_latency::.cpu1.data          inf                       # average StoreCondFailReq miss latency
system.cpu1.dcache.StoreCondFailReq_avg_miss_latency::total          inf                       # average StoreCondFailReq miss latency
system.cpu1.dcache.StoreCondFailReq_mshr_miss_latency::.cpu1.data       358500                       # number of StoreCondFailReq MSHR miss cycles
system.cpu1.dcache.StoreCondFailReq_mshr_miss_latency::total       358500                       # number of StoreCondFailReq MSHR miss cycles
system.cpu1.dcache.StoreCondFailReq_avg_mshr_miss_latency::.cpu1.data          inf                       # average StoreCondFailReq mshr miss latency
system.cpu1.dcache.StoreCondFailReq_avg_mshr_miss_latency::total          inf                       # average StoreCondFailReq mshr miss latency
system.cpu1.dcache.SwapReq_hits::.cpu1.data         1428                       # number of SwapReq hits
system.cpu1.dcache.SwapReq_hits::total           1428                       # number of SwapReq hits
system.cpu1.dcache.SwapReq_misses::.cpu1.data         2893                       # number of SwapReq misses
system.cpu1.dcache.SwapReq_misses::total         2893                       # number of SwapReq misses
system.cpu1.dcache.SwapReq_miss_latency::.cpu1.data     42700500                       # number of SwapReq miss cycles
system.cpu1.dcache.SwapReq_miss_latency::total     42700500                       # number of SwapReq miss cycles
system.cpu1.dcache.SwapReq_accesses::.cpu1.data         4321                       # number of SwapReq accesses(hits+misses)
system.cpu1.dcache.SwapReq_accesses::total         4321                       # number of SwapReq accesses(hits+misses)
system.cpu1.dcache.SwapReq_miss_rate::.cpu1.data     0.669521                       # miss rate for SwapReq accesses
system.cpu1.dcache.SwapReq_miss_rate::total     0.669521                       # miss rate for SwapReq accesses
system.cpu1.dcache.SwapReq_avg_miss_latency::.cpu1.data 14759.937781                       # average SwapReq miss latency
system.cpu1.dcache.SwapReq_avg_miss_latency::total 14759.937781                       # average SwapReq miss latency
system.cpu1.dcache.SwapReq_mshr_misses::.cpu1.data         2893                       # number of SwapReq MSHR misses
system.cpu1.dcache.SwapReq_mshr_misses::total         2893                       # number of SwapReq MSHR misses
system.cpu1.dcache.SwapReq_mshr_miss_latency::.cpu1.data     39807500                       # number of SwapReq MSHR miss cycles
system.cpu1.dcache.SwapReq_mshr_miss_latency::total     39807500                       # number of SwapReq MSHR miss cycles
system.cpu1.dcache.SwapReq_mshr_miss_rate::.cpu1.data     0.669521                       # mshr miss rate for SwapReq accesses
system.cpu1.dcache.SwapReq_mshr_miss_rate::total     0.669521                       # mshr miss rate for SwapReq accesses
system.cpu1.dcache.SwapReq_avg_mshr_miss_latency::.cpu1.data 13759.937781                       # average SwapReq mshr miss latency
system.cpu1.dcache.SwapReq_avg_mshr_miss_latency::total 13759.937781                       # average SwapReq mshr miss latency
system.cpu1.dcache.tags.pwrStateResidencyTicks::UNDEFINED  64653420500                       # Cumulative time (in ticks) in various power states
system.cpu1.dcache.tags.tagsinuse           31.138777                       # Cycle average of tags in use
system.cpu1.dcache.tags.total_refs           17480693                       # Total number of references to valid blocks.
system.cpu1.dcache.tags.sampled_refs          1448309                       # Sample count of references to valid blocks.
system.cpu1.dcache.tags.avg_refs            12.069726                       # Average number of references to valid blocks.
system.cpu1.dcache.tags.warmup_cycle                0                       # Cycle when the warmup percentage was hit.
system.cpu1.dcache.tags.occ_blocks::.cpu1.data    31.138777                       # Average occupied blocks per requestor
system.cpu1.dcache.tags.occ_percent::.cpu1.data     0.973087                       # Average percentage of cache occupancy
system.cpu1.dcache.tags.occ_percent::total     0.973087                       # Average percentage of cache occupancy
system.cpu1.dcache.tags.occ_task_id_blocks::1024           28                       # Occupied blocks per task id
system.cpu1.dcache.tags.age_task_id_blocks_1024::1           28                       # Occupied blocks per task id
system.cpu1.dcache.tags.occ_task_id_percent::1024     0.875000                       # Percentage of cache occupancy per task id
system.cpu1.dcache.tags.tag_accesses         43483510                       # Number of tag accesses
system.cpu1.dcache.tags.data_accesses        43483510                       # Number of data accesses
system.cpu_clk_domain.clock                       500                       # Clock period in ticks
system.tol2bus.pwrStateResidencyTicks::UNDEFINED  64653420500                       # Cumulative time (in ticks) in various power states
system.tol2bus.trans_dist::ReadResp           2992602                       # Transaction distribution
system.tol2bus.trans_dist::WritebackDirty       812153                       # Transaction distribution
system.tol2bus.trans_dist::WritebackClean      2622416                       # Transaction distribution
system.tol2bus.trans_dist::CleanEvict         5158054                       # Transaction distribution
system.tol2bus.trans_dist::HardPFReq          3772827                       # Transaction distribution
system.tol2bus.trans_dist::HardPFResp               3                       # Transaction distribution
system.tol2bus.trans_dist::UpgradeReq           48656                       # Transaction distribution
system.tol2bus.trans_dist::SCUpgradeReq          9131                       # Transaction distribution
system.tol2bus.trans_dist::UpgradeResp          57787                       # Transaction distribution
system.tol2bus.trans_dist::SCUpgradeFailReq           59                       # Transaction distribution
system.tol2bus.trans_dist::UpgradeFailResp           59                       # Transaction distribution
system.tol2bus.trans_dist::ReadExReq           171746                       # Transaction distribution
system.tol2bus.trans_dist::ReadExResp          171748                       # Transaction distribution
system.tol2bus.trans_dist::ReadCleanReq        119526                       # Transaction distribution
system.tol2bus.trans_dist::ReadSharedReq      2873076                       # Transaction distribution
system.tol2bus.trans_dist::InvalidateReq          761                       # Transaction distribution
system.tol2bus.trans_dist::InvalidateResp          761                       # Transaction distribution
system.tol2bus.pkt_count_system.cpu0.icache.mem_side::system.l2.cpu_side       301044                       # Packet count per connected master and slave (bytes)
system.tol2bus.pkt_count_system.cpu0.dcache.mem_side::system.l2.cpu_side      4748067                       # Packet count per connected master and slave (bytes)
system.tol2bus.pkt_count_system.cpu1.icache.mem_side::system.l2.cpu_side        57447                       # Packet count per connected master and slave (bytes)
system.tol2bus.pkt_count_system.cpu1.dcache.mem_side::system.l2.cpu_side      4300590                       # Packet count per connected master and slave (bytes)
system.tol2bus.pkt_count::total               9407148                       # Packet count per connected master and slave (bytes)
system.tol2bus.pkt_size_system.cpu0.icache.mem_side::system.l2.cpu_side     12842688                       # Cumulative packet size per connected master and slave (bytes)
system.tol2bus.pkt_size_system.cpu0.dcache.mem_side::system.l2.cpu_side    199319872                       # Cumulative packet size per connected master and slave (bytes)
system.tol2bus.pkt_size_system.cpu1.icache.mem_side::system.l2.cpu_side      2451072                       # Cumulative packet size per connected master and slave (bytes)
system.tol2bus.pkt_size_system.cpu1.dcache.mem_side::system.l2.cpu_side    180261760                       # Cumulative packet size per connected master and slave (bytes)
system.tol2bus.pkt_size::total              394875392                       # Cumulative packet size per connected master and slave (bytes)
system.tol2bus.snoops                         9404220                       # Total snoops (count)
system.tol2bus.snoopTraffic                  27459584                       # Total snoop traffic (bytes)
system.tol2bus.snoop_fanout::samples         12503032                       # Request fanout histogram
system.tol2bus.snoop_fanout::mean            0.247556                       # Request fanout histogram
system.tol2bus.snoop_fanout::stdev           0.473677                       # Request fanout histogram
system.tol2bus.snoop_fanout::underflows             0      0.00%      0.00% # Request fanout histogram
system.tol2bus.snoop_fanout::0                9645605     77.15%     77.15% # Request fanout histogram
system.tol2bus.snoop_fanout::1                2620060     20.96%     98.10% # Request fanout histogram
system.tol2bus.snoop_fanout::2                 236965      1.90%    100.00% # Request fanout histogram
system.tol2bus.snoop_fanout::3                    402      0.00%    100.00% # Request fanout histogram
system.tol2bus.snoop_fanout::4                      0      0.00%    100.00% # Request fanout histogram
system.tol2bus.snoop_fanout::5                      0      0.00%    100.00% # Request fanout histogram
system.tol2bus.snoop_fanout::6                      0      0.00%    100.00% # Request fanout histogram
system.tol2bus.snoop_fanout::7                      0      0.00%    100.00% # Request fanout histogram
system.tol2bus.snoop_fanout::8                      0      0.00%    100.00% # Request fanout histogram
system.tol2bus.snoop_fanout::overflows              0      0.00%    100.00% # Request fanout histogram
system.tol2bus.snoop_fanout::min_value              0                       # Request fanout histogram
system.tol2bus.snoop_fanout::max_value              3                       # Request fanout histogram
system.tol2bus.snoop_fanout::total           12503032                       # Request fanout histogram
system.tol2bus.reqLayer0.occupancy         6243476119                       # Layer occupancy (ticks)
system.tol2bus.reqLayer0.utilization              9.7                       # Layer utilization (%)
system.tol2bus.respLayer1.occupancy        2417391768                       # Layer occupancy (ticks)
system.tol2bus.respLayer1.utilization             3.7                       # Layer utilization (%)
system.tol2bus.respLayer0.occupancy         150945237                       # Layer occupancy (ticks)
system.tol2bus.respLayer0.utilization             0.2                       # Layer utilization (%)
system.tol2bus.respLayer3.occupancy        2193942740                       # Layer occupancy (ticks)
system.tol2bus.respLayer3.utilization             3.4                       # Layer utilization (%)
system.tol2bus.respLayer2.occupancy          28956032                       # Layer occupancy (ticks)
system.tol2bus.respLayer2.utilization             0.0                       # Layer utilization (%)
system.tol2bus.snoopLayer0.occupancy             4501                       # Layer occupancy (ticks)
system.tol2bus.snoopLayer0.utilization            0.0                       # Layer utilization (%)

---------- End Simulation Statistics   ----------
