
---------- Begin Simulation Statistics ----------
final_tick                               943303969000                       # Number of ticks from beginning of simulation (restored from checkpoints and never reset)
host_inst_rate                                  90117                       # Simulator instruction rate (inst/s)
host_mem_usage                                 740160                       # Number of bytes of host memory used
host_op_rate                                    90411                       # Simulator op (including micro ops) rate (op/s)
host_seconds                                 12309.93                       # Real time elapsed on the host
host_tick_rate                               76629503                       # Simulator tick rate (ticks/s)
sim_freq                                 1000000000000                       # Frequency of simulated ticks
sim_insts                                  1109330828                       # Number of instructions simulated
sim_ops                                    1112957293                       # Number of ops (including micro ops) simulated
sim_seconds                                  0.943304                       # Number of seconds simulated
sim_ticks                                943303969000                       # Number of ticks simulated
system.cpu0.branchPred.BTBCorrect                   0                       # Number of correct BTB predictions (this stat may not work properly.
system.cpu0.branchPred.BTBHitPct            88.603493                       # BTB Hit Percentage
system.cpu0.branchPred.BTBHits              133283700                       # Number of BTB hits
system.cpu0.branchPred.BTBLookups           150427140                       # Number of BTB lookups
system.cpu0.branchPred.RASInCorrect                 0                       # Number of incorrect RAS predictions.
system.cpu0.branchPred.condIncorrect         12213520                       # Number of conditional branches incorrect
system.cpu0.branchPred.condPredicted        205405129                       # Number of conditional branches predicted
system.cpu0.branchPred.indirectHits          16870667                       # Number of indirect target hits.
system.cpu0.branchPred.indirectLookups       16958579                       # Number of indirect predictor lookups.
system.cpu0.branchPred.indirectMisses           87912                       # Number of indirect misses.
system.cpu0.branchPred.lookups              261456421                       # Number of BP lookups
system.cpu0.branchPred.usedRAS                      0                       # Number of times the RAS was used to get a target.
system.cpu0.branchPredindirectMispredicted      1850999                       # Number of mispredicted indirect branches.
system.cpu0.commit.amos                        905995                       # Number of atomic instructions committed
system.cpu0.commit.branchMispredicts          7992957                       # The number of times a branch was mispredicted
system.cpu0.commit.branches                 252656784                       # Number of branches committed
system.cpu0.commit.bw_lim_events             34595116                       # number cycles where commit BW limit reached
system.cpu0.commit.commitNonSpecStalls        2725321                       # The number of times commit has been forced to stall to communicate backwards
system.cpu0.commit.commitSquashedInsts       19493726                       # The number of squashed insts skipped by commit
system.cpu0.commit.committedInsts          1016596208                       # Number of instructions committed
system.cpu0.commit.committedOps            1017504750                       # Number of ops (including micro ops) committed
system.cpu0.commit.committed_per_cycle::samples   1673613257                       # Number of insts commited each cycle
system.cpu0.commit.committed_per_cycle::mean     0.607969                       # Number of insts commited each cycle
system.cpu0.commit.committed_per_cycle::stdev     1.411447                       # Number of insts commited each cycle
system.cpu0.commit.committed_per_cycle::underflows            0      0.00%      0.00% # Number of insts commited each cycle
system.cpu0.commit.committed_per_cycle::0   1191827808     71.21%     71.21% # Number of insts commited each cycle
system.cpu0.commit.committed_per_cycle::1    285557760     17.06%     88.28% # Number of insts commited each cycle
system.cpu0.commit.committed_per_cycle::2     74081107      4.43%     92.70% # Number of insts commited each cycle
system.cpu0.commit.committed_per_cycle::3     62081051      3.71%     96.41% # Number of insts commited each cycle
system.cpu0.commit.committed_per_cycle::4     14445538      0.86%     97.27% # Number of insts commited each cycle
system.cpu0.commit.committed_per_cycle::5      5494633      0.33%     97.60% # Number of insts commited each cycle
system.cpu0.commit.committed_per_cycle::6      3186330      0.19%     97.79% # Number of insts commited each cycle
system.cpu0.commit.committed_per_cycle::7      2343914      0.14%     97.93% # Number of insts commited each cycle
system.cpu0.commit.committed_per_cycle::8     34595116      2.07%    100.00% # Number of insts commited each cycle
system.cpu0.commit.committed_per_cycle::overflows            0      0.00%    100.00% # Number of insts commited each cycle
system.cpu0.commit.committed_per_cycle::min_value            0                       # Number of insts commited each cycle
system.cpu0.commit.committed_per_cycle::max_value            8                       # Number of insts commited each cycle
system.cpu0.commit.committed_per_cycle::total   1673613257                       # Number of insts commited each cycle
system.cpu0.commit.fp_insts                        50                       # Number of committed floating point instructions.
system.cpu0.commit.function_calls            20545061                       # Number of function calls committed.
system.cpu0.commit.int_insts                983005801                       # Number of committed integer instructions.
system.cpu0.commit.loads                    316445320                       # Number of loads committed
system.cpu0.commit.membars                    1814456                       # Number of memory barriers committed
system.cpu0.commit.op_class_0::No_OpClass      1814462      0.18%      0.18% # Class of committed instruction
system.cpu0.commit.op_class_0::IntAlu       563653501     55.40%     55.57% # Class of committed instruction
system.cpu0.commit.op_class_0::IntMult        8031684      0.79%     56.36% # Class of committed instruction
system.cpu0.commit.op_class_0::IntDiv         1811039      0.18%     56.54% # Class of committed instruction
system.cpu0.commit.op_class_0::FloatAdd             0      0.00%     56.54% # Class of committed instruction
system.cpu0.commit.op_class_0::FloatCmp             4      0.00%     56.54% # Class of committed instruction
system.cpu0.commit.op_class_0::FloatCvt            12      0.00%     56.54% # Class of committed instruction
system.cpu0.commit.op_class_0::FloatMult            0      0.00%     56.54% # Class of committed instruction
system.cpu0.commit.op_class_0::FloatMultAcc            0      0.00%     56.54% # Class of committed instruction
system.cpu0.commit.op_class_0::FloatDiv             2      0.00%     56.54% # Class of committed instruction
system.cpu0.commit.op_class_0::FloatMisc            4      0.00%     56.54% # Class of committed instruction
system.cpu0.commit.op_class_0::FloatSqrt            0      0.00%     56.54% # Class of committed instruction
system.cpu0.commit.op_class_0::SimdAdd              0      0.00%     56.54% # Class of committed instruction
system.cpu0.commit.op_class_0::SimdAddAcc            0      0.00%     56.54% # Class of committed instruction
system.cpu0.commit.op_class_0::SimdAlu              0      0.00%     56.54% # Class of committed instruction
system.cpu0.commit.op_class_0::SimdCmp              0      0.00%     56.54% # Class of committed instruction
system.cpu0.commit.op_class_0::SimdCvt              0      0.00%     56.54% # Class of committed instruction
system.cpu0.commit.op_class_0::SimdMisc             0      0.00%     56.54% # Class of committed instruction
system.cpu0.commit.op_class_0::SimdMult             0      0.00%     56.54% # Class of committed instruction
system.cpu0.commit.op_class_0::SimdMultAcc            0      0.00%     56.54% # Class of committed instruction
system.cpu0.commit.op_class_0::SimdShift            0      0.00%     56.54% # Class of committed instruction
system.cpu0.commit.op_class_0::SimdShiftAcc            0      0.00%     56.54% # Class of committed instruction
system.cpu0.commit.op_class_0::SimdDiv              0      0.00%     56.54% # Class of committed instruction
system.cpu0.commit.op_class_0::SimdSqrt             0      0.00%     56.54% # Class of committed instruction
system.cpu0.commit.op_class_0::SimdFloatAdd            0      0.00%     56.54% # Class of committed instruction
system.cpu0.commit.op_class_0::SimdFloatAlu            0      0.00%     56.54% # Class of committed instruction
system.cpu0.commit.op_class_0::SimdFloatCmp            0      0.00%     56.54% # Class of committed instruction
system.cpu0.commit.op_class_0::SimdFloatCvt            0      0.00%     56.54% # Class of committed instruction
system.cpu0.commit.op_class_0::SimdFloatDiv            0      0.00%     56.54% # Class of committed instruction
system.cpu0.commit.op_class_0::SimdFloatMisc            0      0.00%     56.54% # Class of committed instruction
system.cpu0.commit.op_class_0::SimdFloatMult            0      0.00%     56.54% # Class of committed instruction
system.cpu0.commit.op_class_0::SimdFloatMultAcc            0      0.00%     56.54% # Class of committed instruction
system.cpu0.commit.op_class_0::SimdFloatSqrt            0      0.00%     56.54% # Class of committed instruction
system.cpu0.commit.op_class_0::SimdReduceAdd            0      0.00%     56.54% # Class of committed instruction
system.cpu0.commit.op_class_0::SimdReduceAlu            0      0.00%     56.54% # Class of committed instruction
system.cpu0.commit.op_class_0::SimdReduceCmp            0      0.00%     56.54% # Class of committed instruction
system.cpu0.commit.op_class_0::SimdFloatReduceAdd            0      0.00%     56.54% # Class of committed instruction
system.cpu0.commit.op_class_0::SimdFloatReduceCmp            0      0.00%     56.54% # Class of committed instruction
system.cpu0.commit.op_class_0::SimdAes              0      0.00%     56.54% # Class of committed instruction
system.cpu0.commit.op_class_0::SimdAesMix            0      0.00%     56.54% # Class of committed instruction
system.cpu0.commit.op_class_0::SimdSha1Hash            0      0.00%     56.54% # Class of committed instruction
system.cpu0.commit.op_class_0::SimdSha1Hash2            0      0.00%     56.54% # Class of committed instruction
system.cpu0.commit.op_class_0::SimdSha256Hash            0      0.00%     56.54% # Class of committed instruction
system.cpu0.commit.op_class_0::SimdSha256Hash2            0      0.00%     56.54% # Class of committed instruction
system.cpu0.commit.op_class_0::SimdShaSigma2            0      0.00%     56.54% # Class of committed instruction
system.cpu0.commit.op_class_0::SimdShaSigma3            0      0.00%     56.54% # Class of committed instruction
system.cpu0.commit.op_class_0::SimdPredAlu            0      0.00%     56.54% # Class of committed instruction
system.cpu0.commit.op_class_0::MemRead      317351307     31.19%     87.73% # Class of committed instruction
system.cpu0.commit.op_class_0::MemWrite     124842707     12.27%    100.00% # Class of committed instruction
system.cpu0.commit.op_class_0::FloatMemRead            8      0.00%    100.00% # Class of committed instruction
system.cpu0.commit.op_class_0::FloatMemWrite           20      0.00%    100.00% # Class of committed instruction
system.cpu0.commit.op_class_0::IprAccess            0      0.00%    100.00% # Class of committed instruction
system.cpu0.commit.op_class_0::InstPrefetch            0      0.00%    100.00% # Class of committed instruction
system.cpu0.commit.op_class_0::total       1017504750                       # Class of committed instruction
system.cpu0.commit.refs                     442194042                       # Number of memory references committed
system.cpu0.commit.swp_count                        0                       # Number of s/w prefetches committed
system.cpu0.commit.vec_insts                        0                       # Number of committed Vector instructions.
system.cpu0.committedInsts                 1016596208                       # Number of Instructions Simulated
system.cpu0.committedOps                   1017504750                       # Number of Ops (including micro ops) Simulated
system.cpu0.cpi                              1.834826                       # CPI: Cycles Per Instruction
system.cpu0.cpi_total                        1.834826                       # CPI: Total CPI of All Threads
system.cpu0.decode.BlockedCycles            182645734                       # Number of cycles decode is blocked
system.cpu0.decode.BranchMispred              4224655                       # Number of times decode detected a branch misprediction
system.cpu0.decode.BranchResolved           131856348                       # Number of times decode resolved a branch
system.cpu0.decode.DecodedInsts            1055935028                       # Number of instructions handled by decode
system.cpu0.decode.IdleCycles               745356496                       # Number of cycles decode is idle
system.cpu0.decode.RunCycles                743821842                       # Number of cycles decode is running
system.cpu0.decode.SquashCycles               8002326                       # Number of cycles decode is squashing
system.cpu0.decode.SquashedInsts              4134264                       # Number of squashed instructions handled by decode
system.cpu0.decode.UnblockCycles              2528851                       # Number of cycles decode is unblocking
system.cpu0.dtb.accesses                            0                       # DTB accesses
system.cpu0.dtb.hits                                0                       # DTB hits
system.cpu0.dtb.misses                              0                       # DTB misses
system.cpu0.dtb.read_accesses                       0                       # DTB read accesses
system.cpu0.dtb.read_hits                           0                       # DTB read hits
system.cpu0.dtb.read_misses                         0                       # DTB read misses
system.cpu0.dtb.write_accesses                      0                       # DTB write accesses
system.cpu0.dtb.write_hits                          0                       # DTB write hits
system.cpu0.dtb.write_misses                        0                       # DTB write misses
system.cpu0.fetch.Branches                  261456421                       # Number of branches that fetch encountered
system.cpu0.fetch.CacheLines                168539883                       # Number of cache lines fetched
system.cpu0.fetch.Cycles                    930463027                       # Number of cycles fetch has run and was not squashing or blocked
system.cpu0.fetch.IcacheSquashes              3821789                       # Number of outstanding Icache misses that were squashed
system.cpu0.fetch.IcacheWaitRetryStallCycles          152                       # Number of stall cycles due to full MSHR
system.cpu0.fetch.Insts                    1065790022                       # Number of instructions fetch has processed
system.cpu0.fetch.MiscStallCycles                  45                       # Number of cycles fetch has spent waiting on interrupts, or bad addresses, or out of MSHRs
system.cpu0.fetch.PendingTrapStallCycles           66                       # Number of stall cycles due to pending traps
system.cpu0.fetch.SquashCycles               24445800                       # Number of cycles fetch has spent squashing
system.cpu0.fetch.branchRate                 0.140170                       # Number of branch fetches per cycle
system.cpu0.fetch.icacheStallCycles         739669059                       # Number of cycles fetch is stalled on an Icache miss
system.cpu0.fetch.predictedBranches         150154367                       # Number of branches that fetch has predicted taken
system.cpu0.fetch.rate                       0.571384                       # Number of inst fetches per cycle
system.cpu0.fetch.rateDist::samples        1682355249                       # Number of instructions fetched each cycle (Total)
system.cpu0.fetch.rateDist::mean             0.634051                       # Number of instructions fetched each cycle (Total)
system.cpu0.fetch.rateDist::stdev            0.900653                       # Number of instructions fetched each cycle (Total)
system.cpu0.fetch.rateDist::underflows              0      0.00%      0.00% # Number of instructions fetched each cycle (Total)
system.cpu0.fetch.rateDist::0               918953836     54.62%     54.62% # Number of instructions fetched each cycle (Total)
system.cpu0.fetch.rateDist::1               574352256     34.14%     88.76% # Number of instructions fetched each cycle (Total)
system.cpu0.fetch.rateDist::2               110269226      6.55%     95.32% # Number of instructions fetched each cycle (Total)
system.cpu0.fetch.rateDist::3                60475345      3.59%     98.91% # Number of instructions fetched each cycle (Total)
system.cpu0.fetch.rateDist::4                10607066      0.63%     99.54% # Number of instructions fetched each cycle (Total)
system.cpu0.fetch.rateDist::5                 3848007      0.23%     99.77% # Number of instructions fetched each cycle (Total)
system.cpu0.fetch.rateDist::6                  134453      0.01%     99.78% # Number of instructions fetched each cycle (Total)
system.cpu0.fetch.rateDist::7                 1813155      0.11%     99.89% # Number of instructions fetched each cycle (Total)
system.cpu0.fetch.rateDist::8                 1901905      0.11%    100.00% # Number of instructions fetched each cycle (Total)
system.cpu0.fetch.rateDist::overflows               0      0.00%    100.00% # Number of instructions fetched each cycle (Total)
system.cpu0.fetch.rateDist::min_value               0                       # Number of instructions fetched each cycle (Total)
system.cpu0.fetch.rateDist::max_value               8                       # Number of instructions fetched each cycle (Total)
system.cpu0.fetch.rateDist::total          1682355249                       # Number of instructions fetched each cycle (Total)
system.cpu0.fp_regfile_reads                       49                       # number of floating regfile reads
system.cpu0.fp_regfile_writes                      23                       # number of floating regfile writes
system.cpu0.idleCycles                      182921509                       # Total number of cycles that the CPU has spent unscheduled due to idling
system.cpu0.iew.branchMispredicts             8112398                       # Number of branch mispredicts detected at execute
system.cpu0.iew.exec_branches               254996289                       # Number of branches executed
system.cpu0.iew.exec_nop                            0                       # number of nop insts executed
system.cpu0.iew.exec_rate                    0.554272                       # Inst execution rate
system.cpu0.iew.exec_refs                   451782881                       # number of memory reference insts executed
system.cpu0.iew.exec_stores                 127287873                       # Number of stores executed
system.cpu0.iew.exec_swp                            0                       # number of swp insts executed
system.cpu0.iew.iewBlockCycles              150210189                       # Number of cycles IEW is blocking
system.cpu0.iew.iewDispLoadInsts            323201444                       # Number of dispatched load instructions
system.cpu0.iew.iewDispNonSpecInsts            911360                       # Number of dispatched non-speculative instructions
system.cpu0.iew.iewDispSquashedInsts          5339884                       # Number of squashed instructions skipped by dispatch
system.cpu0.iew.iewDispStoreInsts           128072775                       # Number of dispatched store instructions
system.cpu0.iew.iewDispatchedInsts         1036988121                       # Number of instructions dispatched to IQ
system.cpu0.iew.iewExecLoadInsts            324495008                       # Number of load instructions executed
system.cpu0.iew.iewExecSquashedInsts          4316271                       # Number of squashed instructions skipped in execute
system.cpu0.iew.iewExecutedInsts           1033870754                       # Number of executed instructions
system.cpu0.iew.iewIQFullEvents                717163                       # Number of times the IQ has become full, causing a stall
system.cpu0.iew.iewIdleCycles                       0                       # Number of cycles IEW is idle
system.cpu0.iew.iewLSQFullEvents              3455235                       # Number of times the LSQ has become full, causing a stall
system.cpu0.iew.iewSquashCycles               8002326                       # Number of cycles IEW is squashing
system.cpu0.iew.iewUnblockCycles              5207077                       # Number of cycles IEW is unblocking
system.cpu0.iew.lsq.thread0.blockedLoads            0                       # Number of blocked loads due to partial load-store forwarding
system.cpu0.iew.lsq.thread0.cacheBlocked        98686                       # Number of times an access to memory failed due to the cache being blocked
system.cpu0.iew.lsq.thread0.forwLoads        20095880                       # Number of loads that had data forwarded from stores
system.cpu0.iew.lsq.thread0.ignoredResponses         8498                       # Number of memory responses ignored because the instruction is squashed
system.cpu0.iew.lsq.thread0.invAddrLoads            0                       # Number of loads ignored due to an invalid address
system.cpu0.iew.lsq.thread0.invAddrSwpfs            0                       # Number of software prefetches ignored due to an invalid address
system.cpu0.iew.lsq.thread0.memOrderViolation         9452                       # Number of memory ordering violations
system.cpu0.iew.lsq.thread0.rescheduledLoads      3653630                       # Number of loads that were rescheduled
system.cpu0.iew.lsq.thread0.squashedLoads      6756124                       # Number of loads squashed
system.cpu0.iew.lsq.thread0.squashedStores      2324042                       # Number of stores squashed
system.cpu0.iew.memOrderViolationEvents          9452                       # Number of memory order violations
system.cpu0.iew.predictedNotTakenIncorrect      1137828                       # Number of branches that were predicted not taken incorrectly
system.cpu0.iew.predictedTakenIncorrect       6974570                       # Number of branches that were predicted taken incorrectly
system.cpu0.iew.wb_consumers                455783956                       # num instructions consuming a value
system.cpu0.iew.wb_count                   1027478567                       # cumulative count of insts written-back
system.cpu0.iew.wb_fanout                    0.828150                       # average fanout of values written-back
system.cpu0.iew.wb_producers                377457510                       # num instructions producing a value
system.cpu0.iew.wb_rate                      0.550845                       # insts written-back per cycle
system.cpu0.iew.wb_sent                    1027550641                       # cumulative count of insts sent to commit
system.cpu0.int_regfile_reads              1267710788                       # number of integer regfile reads
system.cpu0.int_regfile_writes              653784898                       # number of integer regfile writes
system.cpu0.ipc                              0.545011                       # IPC: Instructions Per Cycle
system.cpu0.ipc_total                        0.545011                       # IPC: Total IPC of All Threads
system.cpu0.iq.FU_type_0::No_OpClass          1816098      0.17%      0.17% # Type of FU issued
system.cpu0.iq.FU_type_0::IntAlu            572302000     55.13%     55.30% # Type of FU issued
system.cpu0.iq.FU_type_0::IntMult             8145938      0.78%     56.08% # Type of FU issued
system.cpu0.iq.FU_type_0::IntDiv              1811750      0.17%     56.26% # Type of FU issued
system.cpu0.iq.FU_type_0::FloatAdd                  0      0.00%     56.26% # Type of FU issued
system.cpu0.iq.FU_type_0::FloatCmp                  4      0.00%     56.26% # Type of FU issued
system.cpu0.iq.FU_type_0::FloatCvt                 12      0.00%     56.26% # Type of FU issued
system.cpu0.iq.FU_type_0::FloatMult                 0      0.00%     56.26% # Type of FU issued
system.cpu0.iq.FU_type_0::FloatMultAcc              1      0.00%     56.26% # Type of FU issued
system.cpu0.iq.FU_type_0::FloatDiv                  2      0.00%     56.26% # Type of FU issued
system.cpu0.iq.FU_type_0::FloatMisc                 4      0.00%     56.26% # Type of FU issued
system.cpu0.iq.FU_type_0::FloatSqrt                 0      0.00%     56.26% # Type of FU issued
system.cpu0.iq.FU_type_0::SimdAdd                   0      0.00%     56.26% # Type of FU issued
system.cpu0.iq.FU_type_0::SimdAddAcc                0      0.00%     56.26% # Type of FU issued
system.cpu0.iq.FU_type_0::SimdAlu                   0      0.00%     56.26% # Type of FU issued
system.cpu0.iq.FU_type_0::SimdCmp                   0      0.00%     56.26% # Type of FU issued
system.cpu0.iq.FU_type_0::SimdCvt                   0      0.00%     56.26% # Type of FU issued
system.cpu0.iq.FU_type_0::SimdMisc                  0      0.00%     56.26% # Type of FU issued
system.cpu0.iq.FU_type_0::SimdMult                  0      0.00%     56.26% # Type of FU issued
system.cpu0.iq.FU_type_0::SimdMultAcc               0      0.00%     56.26% # Type of FU issued
system.cpu0.iq.FU_type_0::SimdShift                 0      0.00%     56.26% # Type of FU issued
system.cpu0.iq.FU_type_0::SimdShiftAcc              0      0.00%     56.26% # Type of FU issued
system.cpu0.iq.FU_type_0::SimdDiv                   0      0.00%     56.26% # Type of FU issued
system.cpu0.iq.FU_type_0::SimdSqrt                  0      0.00%     56.26% # Type of FU issued
system.cpu0.iq.FU_type_0::SimdFloatAdd              0      0.00%     56.26% # Type of FU issued
system.cpu0.iq.FU_type_0::SimdFloatAlu              0      0.00%     56.26% # Type of FU issued
system.cpu0.iq.FU_type_0::SimdFloatCmp              0      0.00%     56.26% # Type of FU issued
system.cpu0.iq.FU_type_0::SimdFloatCvt              0      0.00%     56.26% # Type of FU issued
system.cpu0.iq.FU_type_0::SimdFloatDiv              0      0.00%     56.26% # Type of FU issued
system.cpu0.iq.FU_type_0::SimdFloatMisc             0      0.00%     56.26% # Type of FU issued
system.cpu0.iq.FU_type_0::SimdFloatMult             0      0.00%     56.26% # Type of FU issued
system.cpu0.iq.FU_type_0::SimdFloatMultAcc            0      0.00%     56.26% # Type of FU issued
system.cpu0.iq.FU_type_0::SimdFloatSqrt             0      0.00%     56.26% # Type of FU issued
system.cpu0.iq.FU_type_0::SimdReduceAdd             0      0.00%     56.26% # Type of FU issued
system.cpu0.iq.FU_type_0::SimdReduceAlu             0      0.00%     56.26% # Type of FU issued
system.cpu0.iq.FU_type_0::SimdReduceCmp             0      0.00%     56.26% # Type of FU issued
system.cpu0.iq.FU_type_0::SimdFloatReduceAdd            0      0.00%     56.26% # Type of FU issued
system.cpu0.iq.FU_type_0::SimdFloatReduceCmp            0      0.00%     56.26% # Type of FU issued
system.cpu0.iq.FU_type_0::SimdAes                   0      0.00%     56.26% # Type of FU issued
system.cpu0.iq.FU_type_0::SimdAesMix                0      0.00%     56.26% # Type of FU issued
system.cpu0.iq.FU_type_0::SimdSha1Hash              0      0.00%     56.26% # Type of FU issued
system.cpu0.iq.FU_type_0::SimdSha1Hash2             0      0.00%     56.26% # Type of FU issued
system.cpu0.iq.FU_type_0::SimdSha256Hash            0      0.00%     56.26% # Type of FU issued
system.cpu0.iq.FU_type_0::SimdSha256Hash2            0      0.00%     56.26% # Type of FU issued
system.cpu0.iq.FU_type_0::SimdShaSigma2             0      0.00%     56.26% # Type of FU issued
system.cpu0.iq.FU_type_0::SimdShaSigma3             0      0.00%     56.26% # Type of FU issued
system.cpu0.iq.FU_type_0::SimdPredAlu               0      0.00%     56.26% # Type of FU issued
system.cpu0.iq.FU_type_0::MemRead           327492963     31.54%     87.80% # Type of FU issued
system.cpu0.iq.FU_type_0::MemWrite          126618224     12.20%    100.00% # Type of FU issued
system.cpu0.iq.FU_type_0::FloatMemRead              8      0.00%    100.00% # Type of FU issued
system.cpu0.iq.FU_type_0::FloatMemWrite            22      0.00%    100.00% # Type of FU issued
system.cpu0.iq.FU_type_0::IprAccess                 0      0.00%    100.00% # Type of FU issued
system.cpu0.iq.FU_type_0::InstPrefetch              0      0.00%    100.00% # Type of FU issued
system.cpu0.iq.FU_type_0::total            1038187026                       # Type of FU issued
system.cpu0.iq.fp_alu_accesses                     55                       # Number of floating point alu accesses
system.cpu0.iq.fp_inst_queue_reads                108                       # Number of floating instruction queue reads
system.cpu0.iq.fp_inst_queue_wakeup_accesses           53                       # Number of floating instruction queue wakeup accesses
system.cpu0.iq.fp_inst_queue_writes                56                       # Number of floating instruction queue writes
system.cpu0.iq.fu_busy_cnt                    1217496                       # FU busy when requested
system.cpu0.iq.fu_busy_rate                  0.001173                       # FU busy rate (busy events/executed inst)
system.cpu0.iq.fu_full::No_OpClass                  0      0.00%      0.00% # attempts to use FU when none available
system.cpu0.iq.fu_full::IntAlu                 213331     17.52%     17.52% # attempts to use FU when none available
system.cpu0.iq.fu_full::IntMult                     0      0.00%     17.52% # attempts to use FU when none available
system.cpu0.iq.fu_full::IntDiv                      0      0.00%     17.52% # attempts to use FU when none available
system.cpu0.iq.fu_full::FloatAdd                    0      0.00%     17.52% # attempts to use FU when none available
system.cpu0.iq.fu_full::FloatCmp                    0      0.00%     17.52% # attempts to use FU when none available
system.cpu0.iq.fu_full::FloatCvt                    0      0.00%     17.52% # attempts to use FU when none available
system.cpu0.iq.fu_full::FloatMult                   0      0.00%     17.52% # attempts to use FU when none available
system.cpu0.iq.fu_full::FloatMultAcc                0      0.00%     17.52% # attempts to use FU when none available
system.cpu0.iq.fu_full::FloatDiv                    0      0.00%     17.52% # attempts to use FU when none available
system.cpu0.iq.fu_full::FloatMisc                   0      0.00%     17.52% # attempts to use FU when none available
system.cpu0.iq.fu_full::FloatSqrt                   0      0.00%     17.52% # attempts to use FU when none available
system.cpu0.iq.fu_full::SimdAdd                     0      0.00%     17.52% # attempts to use FU when none available
system.cpu0.iq.fu_full::SimdAddAcc                  0      0.00%     17.52% # attempts to use FU when none available
system.cpu0.iq.fu_full::SimdAlu                     0      0.00%     17.52% # attempts to use FU when none available
system.cpu0.iq.fu_full::SimdCmp                     0      0.00%     17.52% # attempts to use FU when none available
system.cpu0.iq.fu_full::SimdCvt                     0      0.00%     17.52% # attempts to use FU when none available
system.cpu0.iq.fu_full::SimdMisc                    0      0.00%     17.52% # attempts to use FU when none available
system.cpu0.iq.fu_full::SimdMult                    0      0.00%     17.52% # attempts to use FU when none available
system.cpu0.iq.fu_full::SimdMultAcc                 0      0.00%     17.52% # attempts to use FU when none available
system.cpu0.iq.fu_full::SimdShift                   0      0.00%     17.52% # attempts to use FU when none available
system.cpu0.iq.fu_full::SimdShiftAcc                0      0.00%     17.52% # attempts to use FU when none available
system.cpu0.iq.fu_full::SimdDiv                     0      0.00%     17.52% # attempts to use FU when none available
system.cpu0.iq.fu_full::SimdSqrt                    0      0.00%     17.52% # attempts to use FU when none available
system.cpu0.iq.fu_full::SimdFloatAdd                0      0.00%     17.52% # attempts to use FU when none available
system.cpu0.iq.fu_full::SimdFloatAlu                0      0.00%     17.52% # attempts to use FU when none available
system.cpu0.iq.fu_full::SimdFloatCmp                0      0.00%     17.52% # attempts to use FU when none available
system.cpu0.iq.fu_full::SimdFloatCvt                0      0.00%     17.52% # attempts to use FU when none available
system.cpu0.iq.fu_full::SimdFloatDiv                0      0.00%     17.52% # attempts to use FU when none available
system.cpu0.iq.fu_full::SimdFloatMisc               0      0.00%     17.52% # attempts to use FU when none available
system.cpu0.iq.fu_full::SimdFloatMult               0      0.00%     17.52% # attempts to use FU when none available
system.cpu0.iq.fu_full::SimdFloatMultAcc            0      0.00%     17.52% # attempts to use FU when none available
system.cpu0.iq.fu_full::SimdFloatSqrt               0      0.00%     17.52% # attempts to use FU when none available
system.cpu0.iq.fu_full::SimdReduceAdd               0      0.00%     17.52% # attempts to use FU when none available
system.cpu0.iq.fu_full::SimdReduceAlu               0      0.00%     17.52% # attempts to use FU when none available
system.cpu0.iq.fu_full::SimdReduceCmp               0      0.00%     17.52% # attempts to use FU when none available
system.cpu0.iq.fu_full::SimdFloatReduceAdd            0      0.00%     17.52% # attempts to use FU when none available
system.cpu0.iq.fu_full::SimdFloatReduceCmp            0      0.00%     17.52% # attempts to use FU when none available
system.cpu0.iq.fu_full::SimdAes                     0      0.00%     17.52% # attempts to use FU when none available
system.cpu0.iq.fu_full::SimdAesMix                  0      0.00%     17.52% # attempts to use FU when none available
system.cpu0.iq.fu_full::SimdSha1Hash                0      0.00%     17.52% # attempts to use FU when none available
system.cpu0.iq.fu_full::SimdSha1Hash2               0      0.00%     17.52% # attempts to use FU when none available
system.cpu0.iq.fu_full::SimdSha256Hash              0      0.00%     17.52% # attempts to use FU when none available
system.cpu0.iq.fu_full::SimdSha256Hash2             0      0.00%     17.52% # attempts to use FU when none available
system.cpu0.iq.fu_full::SimdShaSigma2               0      0.00%     17.52% # attempts to use FU when none available
system.cpu0.iq.fu_full::SimdShaSigma3               0      0.00%     17.52% # attempts to use FU when none available
system.cpu0.iq.fu_full::SimdPredAlu                 0      0.00%     17.52% # attempts to use FU when none available
system.cpu0.iq.fu_full::MemRead                880618     72.33%     89.85% # attempts to use FU when none available
system.cpu0.iq.fu_full::MemWrite               123545     10.15%    100.00% # attempts to use FU when none available
system.cpu0.iq.fu_full::FloatMemRead                0      0.00%    100.00% # attempts to use FU when none available
system.cpu0.iq.fu_full::FloatMemWrite               2      0.00%    100.00% # attempts to use FU when none available
system.cpu0.iq.fu_full::IprAccess                   0      0.00%    100.00% # attempts to use FU when none available
system.cpu0.iq.fu_full::InstPrefetch                0      0.00%    100.00% # attempts to use FU when none available
system.cpu0.iq.int_alu_accesses            1037588369                       # Number of integer alu accesses
system.cpu0.iq.int_inst_queue_reads        3760019343                       # Number of integer instruction queue reads
system.cpu0.iq.int_inst_queue_wakeup_accesses   1027478514                       # Number of integer instruction queue wakeup accesses
system.cpu0.iq.int_inst_queue_writes       1056479899                       # Number of integer instruction queue writes
system.cpu0.iq.iqInstsAdded                1034262131                       # Number of instructions added to the IQ (excludes non-spec)
system.cpu0.iq.iqInstsIssued               1038187026                       # Number of instructions issued
system.cpu0.iq.iqNonSpecInstsAdded            2725990                       # Number of non-speculative instructions added to the IQ
system.cpu0.iq.iqSquashedInstsExamined       19483286                       # Number of squashed instructions iterated over during squash; mainly for profiling
system.cpu0.iq.iqSquashedInstsIssued            72655                       # Number of squashed instructions issued
system.cpu0.iq.iqSquashedNonSpecRemoved           669                       # Number of squashed non-spec instructions that were removed
system.cpu0.iq.iqSquashedOperandsExamined      9624530                       # Number of squashed operands that are examined and possibly removed from graph
system.cpu0.iq.issued_per_cycle::samples   1682355249                       # Number of insts issued each cycle
system.cpu0.iq.issued_per_cycle::mean        0.617103                       # Number of insts issued each cycle
system.cpu0.iq.issued_per_cycle::stdev       0.850540                       # Number of insts issued each cycle
system.cpu0.iq.issued_per_cycle::underflows            0      0.00%      0.00% # Number of insts issued each cycle
system.cpu0.iq.issued_per_cycle::0          936078805     55.64%     55.64% # Number of insts issued each cycle
system.cpu0.iq.issued_per_cycle::1          537068675     31.92%     87.56% # Number of insts issued each cycle
system.cpu0.iq.issued_per_cycle::2          148729248      8.84%     96.41% # Number of insts issued each cycle
system.cpu0.iq.issued_per_cycle::3           46691644      2.78%     99.18% # Number of insts issued each cycle
system.cpu0.iq.issued_per_cycle::4            8763552      0.52%     99.70% # Number of insts issued each cycle
system.cpu0.iq.issued_per_cycle::5            2564495      0.15%     99.85% # Number of insts issued each cycle
system.cpu0.iq.issued_per_cycle::6            1623423      0.10%     99.95% # Number of insts issued each cycle
system.cpu0.iq.issued_per_cycle::7             715554      0.04%     99.99% # Number of insts issued each cycle
system.cpu0.iq.issued_per_cycle::8             119853      0.01%    100.00% # Number of insts issued each cycle
system.cpu0.iq.issued_per_cycle::overflows            0      0.00%    100.00% # Number of insts issued each cycle
system.cpu0.iq.issued_per_cycle::min_value            0                       # Number of insts issued each cycle
system.cpu0.iq.issued_per_cycle::max_value            8                       # Number of insts issued each cycle
system.cpu0.iq.issued_per_cycle::total     1682355249                       # Number of insts issued each cycle
system.cpu0.iq.rate                          0.556586                       # Inst issue rate
system.cpu0.iq.vec_alu_accesses                     0                       # Number of vector alu accesses
system.cpu0.iq.vec_inst_queue_reads                 0                       # Number of vector instruction queue reads
system.cpu0.iq.vec_inst_queue_wakeup_accesses            0                       # Number of vector instruction queue wakeup accesses
system.cpu0.iq.vec_inst_queue_writes                0                       # Number of vector instruction queue writes
system.cpu0.itb.accesses                            0                       # DTB accesses
system.cpu0.itb.hits                                0                       # DTB hits
system.cpu0.itb.misses                              0                       # DTB misses
system.cpu0.itb.read_accesses                       0                       # DTB read accesses
system.cpu0.itb.read_hits                           0                       # DTB read hits
system.cpu0.itb.read_misses                         0                       # DTB read misses
system.cpu0.itb.write_accesses                      0                       # DTB write accesses
system.cpu0.itb.write_hits                          0                       # DTB write hits
system.cpu0.itb.write_misses                        0                       # DTB write misses
system.cpu0.memDep0.conflictingLoads         14794880                       # Number of conflicting loads.
system.cpu0.memDep0.conflictingStores         1018879                       # Number of conflicting stores.
system.cpu0.memDep0.insertedLoads           323201444                       # Number of loads inserted to the mem dependence unit.
system.cpu0.memDep0.insertedStores          128072775                       # Number of stores inserted to the mem dependence unit.
system.cpu0.misc_regfile_reads                   1657                       # number of misc regfile reads
system.cpu0.misc_regfile_writes                    22                       # number of misc regfile writes
system.cpu0.numCycles                      1865276758                       # number of cpu cycles simulated
system.cpu0.numWorkItemsCompleted                   0                       # number of work items this cpu completed
system.cpu0.numWorkItemsStarted                     0                       # number of work items this cpu started
system.cpu0.quiesceCycles                    21331195                       # Total number of cycles that CPU has spent quiesced or waiting for an interrupt
system.cpu0.rename.BlockCycles              163357849                       # Number of cycles rename is blocking
system.cpu0.rename.CommittedMaps            647554709                       # Number of HB maps that are committed
system.cpu0.rename.IQFullEvents               6301228                       # Number of times rename has blocked due to IQ full
system.cpu0.rename.IdleCycles               754292217                       # Number of cycles rename is idle
system.cpu0.rename.LQFullEvents               6681087                       # Number of times rename has blocked due to LQ full
system.cpu0.rename.ROBFullEvents                31044                       # Number of times rename has blocked due to ROB full
system.cpu0.rename.RenameLookups           1287732052                       # Number of register rename lookups that rename has made
system.cpu0.rename.RenamedInsts            1049593552                       # Number of instructions processed by rename
system.cpu0.rename.RenamedOperands          670973457                       # Number of destination operands rename has renamed
system.cpu0.rename.RunCycles                736676601                       # Number of cycles rename is running
system.cpu0.rename.SQFullEvents               6456314                       # Number of times rename has blocked due to SQ full
system.cpu0.rename.SquashCycles               8002326                       # Number of cycles rename is squashing
system.cpu0.rename.UnblockCycles             19772564                       # Number of cycles rename is unblocking
system.cpu0.rename.UndoneMaps                23418681                       # Number of HB maps that are undone due to squashing
system.cpu0.rename.fp_rename_lookups               49                       # Number of floating rename lookups
system.cpu0.rename.int_rename_lookups      1287732003                       # Number of integer rename lookups
system.cpu0.rename.serializeStallCycles        253692                       # count of cycles rename stalled for serializing inst
system.cpu0.rename.serializingInsts              5069                       # count of serializing insts renamed
system.cpu0.rename.skidInsts                 14187840                       # count of insts added to the skid buffer
system.cpu0.rename.tempSerializingInsts          5070                       # count of temporary serializing insts renamed
system.cpu0.rob.rob_reads                  2675995635                       # The number of ROB reads
system.cpu0.rob.rob_writes                 2082748828                       # The number of ROB writes
system.cpu0.timesIdled                       26977062                       # Number of times that the entire CPU went into an idle state and unscheduled itself
system.cpu0.workload.numSyscalls                 1623                       # Number of system calls
system.cpu1.branchPred.BTBCorrect                   0                       # Number of correct BTB predictions (this stat may not work properly.
system.cpu1.branchPred.BTBHitPct            80.124097                       # BTB Hit Percentage
system.cpu1.branchPred.BTBHits                5803297                       # Number of BTB hits
system.cpu1.branchPred.BTBLookups             7242886                       # Number of BTB lookups
system.cpu1.branchPred.RASInCorrect                 0                       # Number of incorrect RAS predictions.
system.cpu1.branchPred.condIncorrect           773264                       # Number of conditional branches incorrect
system.cpu1.branchPred.condPredicted          9585448                       # Number of conditional branches predicted
system.cpu1.branchPred.indirectHits            224851                       # Number of indirect target hits.
system.cpu1.branchPred.indirectLookups         234091                       # Number of indirect predictor lookups.
system.cpu1.branchPred.indirectMisses            9240                       # Number of indirect misses.
system.cpu1.branchPred.lookups               10861209                       # Number of BP lookups
system.cpu1.branchPred.usedRAS                      0                       # Number of times the RAS was used to get a target.
system.cpu1.branchPredindirectMispredicted        13535                       # Number of mispredicted indirect branches.
system.cpu1.commit.amos                        905778                       # Number of atomic instructions committed
system.cpu1.commit.branchMispredicts           630241                       # The number of times a branch was mispredicted
system.cpu1.commit.branches                   8759202                       # Number of branches committed
system.cpu1.commit.bw_lim_events               737646                       # number cycles where commit BW limit reached
system.cpu1.commit.commitNonSpecStalls        2717971                       # The number of times commit has been forced to stall to communicate backwards
system.cpu1.commit.commitSquashedInsts        4276275                       # The number of squashed insts skipped by commit
system.cpu1.commit.committedInsts            37156879                       # Number of instructions committed
system.cpu1.commit.committedOps              38062834                       # Number of ops (including micro ops) committed
system.cpu1.commit.committed_per_cycle::samples    209865474                       # Number of insts commited each cycle
system.cpu1.commit.committed_per_cycle::mean     0.181368                       # Number of insts commited each cycle
system.cpu1.commit.committed_per_cycle::stdev     0.814443                       # Number of insts commited each cycle
system.cpu1.commit.committed_per_cycle::underflows            0      0.00%      0.00% # Number of insts commited each cycle
system.cpu1.commit.committed_per_cycle::0    193600557     92.25%     92.25% # Number of insts commited each cycle
system.cpu1.commit.committed_per_cycle::1      7941572      3.78%     96.03% # Number of insts commited each cycle
system.cpu1.commit.committed_per_cycle::2      2885668      1.38%     97.41% # Number of insts commited each cycle
system.cpu1.commit.committed_per_cycle::3      2594243      1.24%     98.65% # Number of insts commited each cycle
system.cpu1.commit.committed_per_cycle::4       890036      0.42%     99.07% # Number of insts commited each cycle
system.cpu1.commit.committed_per_cycle::5       256708      0.12%     99.19% # Number of insts commited each cycle
system.cpu1.commit.committed_per_cycle::6       890963      0.42%     99.62% # Number of insts commited each cycle
system.cpu1.commit.committed_per_cycle::7        68081      0.03%     99.65% # Number of insts commited each cycle
system.cpu1.commit.committed_per_cycle::8       737646      0.35%    100.00% # Number of insts commited each cycle
system.cpu1.commit.committed_per_cycle::overflows            0      0.00%    100.00% # Number of insts commited each cycle
system.cpu1.commit.committed_per_cycle::min_value            0                       # Number of insts commited each cycle
system.cpu1.commit.committed_per_cycle::max_value            8                       # Number of insts commited each cycle
system.cpu1.commit.committed_per_cycle::total    209865474                       # Number of insts commited each cycle
system.cpu1.commit.fp_insts                        12                       # Number of committed floating point instructions.
system.cpu1.commit.function_calls              375960                       # Number of function calls committed.
system.cpu1.commit.int_insts                 35772287                       # Number of committed integer instructions.
system.cpu1.commit.loads                     10293495                       # Number of loads committed
system.cpu1.commit.membars                    1811641                       # Number of memory barriers committed
system.cpu1.commit.op_class_0::No_OpClass      1811641      4.76%      4.76% # Class of committed instruction
system.cpu1.commit.op_class_0::IntAlu        22332255     58.67%     63.43% # Class of committed instruction
system.cpu1.commit.op_class_0::IntMult             43      0.00%     63.43% # Class of committed instruction
system.cpu1.commit.op_class_0::IntDiv              86      0.00%     63.43% # Class of committed instruction
system.cpu1.commit.op_class_0::FloatAdd             0      0.00%     63.43% # Class of committed instruction
system.cpu1.commit.op_class_0::FloatCmp             0      0.00%     63.43% # Class of committed instruction
system.cpu1.commit.op_class_0::FloatCvt             0      0.00%     63.43% # Class of committed instruction
system.cpu1.commit.op_class_0::FloatMult            0      0.00%     63.43% # Class of committed instruction
system.cpu1.commit.op_class_0::FloatMultAcc            0      0.00%     63.43% # Class of committed instruction
system.cpu1.commit.op_class_0::FloatDiv             0      0.00%     63.43% # Class of committed instruction
system.cpu1.commit.op_class_0::FloatMisc            0      0.00%     63.43% # Class of committed instruction
system.cpu1.commit.op_class_0::FloatSqrt            0      0.00%     63.43% # Class of committed instruction
system.cpu1.commit.op_class_0::SimdAdd              0      0.00%     63.43% # Class of committed instruction
system.cpu1.commit.op_class_0::SimdAddAcc            0      0.00%     63.43% # Class of committed instruction
system.cpu1.commit.op_class_0::SimdAlu              0      0.00%     63.43% # Class of committed instruction
system.cpu1.commit.op_class_0::SimdCmp              0      0.00%     63.43% # Class of committed instruction
system.cpu1.commit.op_class_0::SimdCvt              0      0.00%     63.43% # Class of committed instruction
system.cpu1.commit.op_class_0::SimdMisc             0      0.00%     63.43% # Class of committed instruction
system.cpu1.commit.op_class_0::SimdMult             0      0.00%     63.43% # Class of committed instruction
system.cpu1.commit.op_class_0::SimdMultAcc            0      0.00%     63.43% # Class of committed instruction
system.cpu1.commit.op_class_0::SimdShift            0      0.00%     63.43% # Class of committed instruction
system.cpu1.commit.op_class_0::SimdShiftAcc            0      0.00%     63.43% # Class of committed instruction
system.cpu1.commit.op_class_0::SimdDiv              0      0.00%     63.43% # Class of committed instruction
system.cpu1.commit.op_class_0::SimdSqrt             0      0.00%     63.43% # Class of committed instruction
system.cpu1.commit.op_class_0::SimdFloatAdd            0      0.00%     63.43% # Class of committed instruction
system.cpu1.commit.op_class_0::SimdFloatAlu            0      0.00%     63.43% # Class of committed instruction
system.cpu1.commit.op_class_0::SimdFloatCmp            0      0.00%     63.43% # Class of committed instruction
system.cpu1.commit.op_class_0::SimdFloatCvt            0      0.00%     63.43% # Class of committed instruction
system.cpu1.commit.op_class_0::SimdFloatDiv            0      0.00%     63.43% # Class of committed instruction
system.cpu1.commit.op_class_0::SimdFloatMisc            0      0.00%     63.43% # Class of committed instruction
system.cpu1.commit.op_class_0::SimdFloatMult            0      0.00%     63.43% # Class of committed instruction
system.cpu1.commit.op_class_0::SimdFloatMultAcc            0      0.00%     63.43% # Class of committed instruction
system.cpu1.commit.op_class_0::SimdFloatSqrt            0      0.00%     63.43% # Class of committed instruction
system.cpu1.commit.op_class_0::SimdReduceAdd            0      0.00%     63.43% # Class of committed instruction
system.cpu1.commit.op_class_0::SimdReduceAlu            0      0.00%     63.43% # Class of committed instruction
system.cpu1.commit.op_class_0::SimdReduceCmp            0      0.00%     63.43% # Class of committed instruction
system.cpu1.commit.op_class_0::SimdFloatReduceAdd            0      0.00%     63.43% # Class of committed instruction
system.cpu1.commit.op_class_0::SimdFloatReduceCmp            0      0.00%     63.43% # Class of committed instruction
system.cpu1.commit.op_class_0::SimdAes              0      0.00%     63.43% # Class of committed instruction
system.cpu1.commit.op_class_0::SimdAesMix            0      0.00%     63.43% # Class of committed instruction
system.cpu1.commit.op_class_0::SimdSha1Hash            0      0.00%     63.43% # Class of committed instruction
system.cpu1.commit.op_class_0::SimdSha1Hash2            0      0.00%     63.43% # Class of committed instruction
system.cpu1.commit.op_class_0::SimdSha256Hash            0      0.00%     63.43% # Class of committed instruction
system.cpu1.commit.op_class_0::SimdSha256Hash2            0      0.00%     63.43% # Class of committed instruction
system.cpu1.commit.op_class_0::SimdShaSigma2            0      0.00%     63.43% # Class of committed instruction
system.cpu1.commit.op_class_0::SimdShaSigma3            0      0.00%     63.43% # Class of committed instruction
system.cpu1.commit.op_class_0::SimdPredAlu            0      0.00%     63.43% # Class of committed instruction
system.cpu1.commit.op_class_0::MemRead       11199273     29.42%     92.86% # Class of committed instruction
system.cpu1.commit.op_class_0::MemWrite       2719524      7.14%    100.00% # Class of committed instruction
system.cpu1.commit.op_class_0::FloatMemRead            0      0.00%    100.00% # Class of committed instruction
system.cpu1.commit.op_class_0::FloatMemWrite           12      0.00%    100.00% # Class of committed instruction
system.cpu1.commit.op_class_0::IprAccess            0      0.00%    100.00% # Class of committed instruction
system.cpu1.commit.op_class_0::InstPrefetch            0      0.00%    100.00% # Class of committed instruction
system.cpu1.commit.op_class_0::total         38062834                       # Class of committed instruction
system.cpu1.commit.refs                      13918809                       # Number of memory references committed
system.cpu1.commit.swp_count                        0                       # Number of s/w prefetches committed
system.cpu1.commit.vec_insts                        0                       # Number of committed Vector instructions.
system.cpu1.committedInsts                   37156879                       # Number of Instructions Simulated
system.cpu1.committedOps                     38062834                       # Number of Ops (including micro ops) Simulated
system.cpu1.cpi                              5.692819                       # CPI: Cycles Per Instruction
system.cpu1.cpi_total                        5.692819                       # CPI: Total CPI of All Threads
system.cpu1.decode.BlockedCycles            184600388                       # Number of cycles decode is blocked
system.cpu1.decode.BranchMispred               151703                       # Number of times decode detected a branch misprediction
system.cpu1.decode.BranchResolved             5569462                       # Number of times decode resolved a branch
system.cpu1.decode.DecodedInsts              44708741                       # Number of instructions handled by decode
system.cpu1.decode.IdleCycles                 5758742                       # Number of cycles decode is idle
system.cpu1.decode.RunCycles                 17730405                       # Number of cycles decode is running
system.cpu1.decode.SquashCycles                631090                       # Number of cycles decode is squashing
system.cpu1.decode.SquashedInsts               348693                       # Number of squashed instructions handled by decode
system.cpu1.decode.UnblockCycles              2045141                       # Number of cycles decode is unblocking
system.cpu1.dtb.accesses                            0                       # DTB accesses
system.cpu1.dtb.hits                                0                       # DTB hits
system.cpu1.dtb.misses                              0                       # DTB misses
system.cpu1.dtb.read_accesses                       0                       # DTB read accesses
system.cpu1.dtb.read_hits                           0                       # DTB read hits
system.cpu1.dtb.read_misses                         0                       # DTB read misses
system.cpu1.dtb.write_accesses                      0                       # DTB write accesses
system.cpu1.dtb.write_hits                          0                       # DTB write hits
system.cpu1.dtb.write_misses                        0                       # DTB write misses
system.cpu1.fetch.Branches                   10861209                       # Number of branches that fetch encountered
system.cpu1.fetch.CacheLines                  5616820                       # Number of cache lines fetched
system.cpu1.fetch.Cycles                    203681849                       # Number of cycles fetch has run and was not squashing or blocked
system.cpu1.fetch.IcacheSquashes                80630                       # Number of outstanding Icache misses that were squashed
system.cpu1.fetch.Insts                      45518187                       # Number of instructions fetch has processed
system.cpu1.fetch.MiscStallCycles                   1                       # Number of cycles fetch has spent waiting on interrupts, or bad addresses, or out of MSHRs
system.cpu1.fetch.SquashCycles                1548226                       # Number of cycles fetch has spent squashing
system.cpu1.fetch.branchRate                 0.051347                       # Number of branch fetches per cycle
system.cpu1.fetch.icacheStallCycles           6309803                       # Number of cycles fetch is stalled on an Icache miss
system.cpu1.fetch.predictedBranches           6028148                       # Number of branches that fetch has predicted taken
system.cpu1.fetch.rate                       0.215188                       # Number of inst fetches per cycle
system.cpu1.fetch.rateDist::samples         210765766                       # Number of instructions fetched each cycle (Total)
system.cpu1.fetch.rateDist::mean             0.220268                       # Number of instructions fetched each cycle (Total)
system.cpu1.fetch.rateDist::stdev            0.644970                       # Number of instructions fetched each cycle (Total)
system.cpu1.fetch.rateDist::underflows              0      0.00%      0.00% # Number of instructions fetched each cycle (Total)
system.cpu1.fetch.rateDist::0               181757786     86.24%     86.24% # Number of instructions fetched each cycle (Total)
system.cpu1.fetch.rateDist::1                17722502      8.41%     94.65% # Number of instructions fetched each cycle (Total)
system.cpu1.fetch.rateDist::2                 6867066      3.26%     97.90% # Number of instructions fetched each cycle (Total)
system.cpu1.fetch.rateDist::3                 3032341      1.44%     99.34% # Number of instructions fetched each cycle (Total)
system.cpu1.fetch.rateDist::4                 1155370      0.55%     99.89% # Number of instructions fetched each cycle (Total)
system.cpu1.fetch.rateDist::5                  169871      0.08%     99.97% # Number of instructions fetched each cycle (Total)
system.cpu1.fetch.rateDist::6                   43034      0.02%     99.99% # Number of instructions fetched each cycle (Total)
system.cpu1.fetch.rateDist::7                      77      0.00%     99.99% # Number of instructions fetched each cycle (Total)
system.cpu1.fetch.rateDist::8                   17719      0.01%    100.00% # Number of instructions fetched each cycle (Total)
system.cpu1.fetch.rateDist::overflows               0      0.00%    100.00% # Number of instructions fetched each cycle (Total)
system.cpu1.fetch.rateDist::min_value               0                       # Number of instructions fetched each cycle (Total)
system.cpu1.fetch.rateDist::max_value               8                       # Number of instructions fetched each cycle (Total)
system.cpu1.fetch.rateDist::total           210765766                       # Number of instructions fetched each cycle (Total)
system.cpu1.fp_regfile_reads                       12                       # number of floating regfile reads
system.cpu1.idleCycles                         761619                       # Total number of cycles that the CPU has spent unscheduled due to idling
system.cpu1.iew.branchMispredicts              669296                       # Number of branch mispredicts detected at execute
system.cpu1.iew.exec_branches                 9315386                       # Number of branches executed
system.cpu1.iew.exec_nop                            0                       # number of nop insts executed
system.cpu1.iew.exec_rate                    0.193120                       # Inst execution rate
system.cpu1.iew.exec_refs                    14916833                       # number of memory reference insts executed
system.cpu1.iew.exec_stores                   3869384                       # Number of stores executed
system.cpu1.iew.exec_swp                            0                       # number of swp insts executed
system.cpu1.iew.iewBlockCycles              163403966                       # Number of cycles IEW is blocking
system.cpu1.iew.iewDispLoadInsts             11339799                       # Number of dispatched load instructions
system.cpu1.iew.iewDispNonSpecInsts            906535                       # Number of dispatched non-speculative instructions
system.cpu1.iew.iewDispSquashedInsts           672559                       # Number of squashed instructions skipped by dispatch
system.cpu1.iew.iewDispStoreInsts             4036873                       # Number of dispatched store instructions
system.cpu1.iew.iewDispatchedInsts           42332816                       # Number of instructions dispatched to IQ
system.cpu1.iew.iewExecLoadInsts             11047449                       # Number of load instructions executed
system.cpu1.iew.iewExecSquashedInsts           694543                       # Number of squashed instructions skipped in execute
system.cpu1.iew.iewExecutedInsts             40850194                       # Number of executed instructions
system.cpu1.iew.iewIQFullEvents                643375                       # Number of times the IQ has become full, causing a stall
system.cpu1.iew.iewIdleCycles                       0                       # Number of cycles IEW is idle
system.cpu1.iew.iewLSQFullEvents              1254741                       # Number of times the LSQ has become full, causing a stall
system.cpu1.iew.iewSquashCycles                631090                       # Number of cycles IEW is squashing
system.cpu1.iew.iewUnblockCycles              3023246                       # Number of cycles IEW is unblocking
system.cpu1.iew.lsq.thread0.blockedLoads            0                       # Number of blocked loads due to partial load-store forwarding
system.cpu1.iew.lsq.thread0.cacheBlocked        16642                       # Number of times an access to memory failed due to the cache being blocked
system.cpu1.iew.lsq.thread0.forwLoads          159851                       # Number of loads that had data forwarded from stores
system.cpu1.iew.lsq.thread0.ignoredResponses         4560                       # Number of memory responses ignored because the instruction is squashed
system.cpu1.iew.lsq.thread0.invAddrLoads            0                       # Number of loads ignored due to an invalid address
system.cpu1.iew.lsq.thread0.invAddrSwpfs            0                       # Number of software prefetches ignored due to an invalid address
system.cpu1.iew.lsq.thread0.memOrderViolation         1225                       # Number of memory ordering violations
system.cpu1.iew.lsq.thread0.rescheduledLoads         2982                       # Number of loads that were rescheduled
system.cpu1.iew.lsq.thread0.squashedLoads      1046304                       # Number of loads squashed
system.cpu1.iew.lsq.thread0.squashedStores       411559                       # Number of stores squashed
system.cpu1.iew.memOrderViolationEvents          1225                       # Number of memory order violations
system.cpu1.iew.predictedNotTakenIncorrect       244523                       # Number of branches that were predicted not taken incorrectly
system.cpu1.iew.predictedTakenIncorrect        424773                       # Number of branches that were predicted taken incorrectly
system.cpu1.iew.wb_consumers                 21827757                       # num instructions consuming a value
system.cpu1.iew.wb_count                     40423691                       # cumulative count of insts written-back
system.cpu1.iew.wb_fanout                    0.848546                       # average fanout of values written-back
system.cpu1.iew.wb_producers                 18521855                       # num instructions producing a value
system.cpu1.iew.wb_rate                      0.191104                       # insts written-back per cycle
system.cpu1.iew.wb_sent                      40440284                       # cumulative count of insts sent to commit
system.cpu1.int_regfile_reads                51766246                       # number of integer regfile reads
system.cpu1.int_regfile_writes               26556776                       # number of integer regfile writes
system.cpu1.ipc                              0.175660                       # IPC: Instructions Per Cycle
system.cpu1.ipc_total                        0.175660                       # IPC: Total IPC of All Threads
system.cpu1.iq.FU_type_0::No_OpClass          1811810      4.36%      4.36% # Type of FU issued
system.cpu1.iq.FU_type_0::IntAlu             24585556     59.18%     63.54% # Type of FU issued
system.cpu1.iq.FU_type_0::IntMult                  47      0.00%     63.54% # Type of FU issued
system.cpu1.iq.FU_type_0::IntDiv                   88      0.00%     63.54% # Type of FU issued
system.cpu1.iq.FU_type_0::FloatAdd                  0      0.00%     63.54% # Type of FU issued
system.cpu1.iq.FU_type_0::FloatCmp                  0      0.00%     63.54% # Type of FU issued
system.cpu1.iq.FU_type_0::FloatCvt                  0      0.00%     63.54% # Type of FU issued
system.cpu1.iq.FU_type_0::FloatMult                 0      0.00%     63.54% # Type of FU issued
system.cpu1.iq.FU_type_0::FloatMultAcc              0      0.00%     63.54% # Type of FU issued
system.cpu1.iq.FU_type_0::FloatDiv                  0      0.00%     63.54% # Type of FU issued
system.cpu1.iq.FU_type_0::FloatMisc                 0      0.00%     63.54% # Type of FU issued
system.cpu1.iq.FU_type_0::FloatSqrt                 0      0.00%     63.54% # Type of FU issued
system.cpu1.iq.FU_type_0::SimdAdd                   0      0.00%     63.54% # Type of FU issued
system.cpu1.iq.FU_type_0::SimdAddAcc                0      0.00%     63.54% # Type of FU issued
system.cpu1.iq.FU_type_0::SimdAlu                   0      0.00%     63.54% # Type of FU issued
system.cpu1.iq.FU_type_0::SimdCmp                   0      0.00%     63.54% # Type of FU issued
system.cpu1.iq.FU_type_0::SimdCvt                   0      0.00%     63.54% # Type of FU issued
system.cpu1.iq.FU_type_0::SimdMisc                  0      0.00%     63.54% # Type of FU issued
system.cpu1.iq.FU_type_0::SimdMult                  0      0.00%     63.54% # Type of FU issued
system.cpu1.iq.FU_type_0::SimdMultAcc               0      0.00%     63.54% # Type of FU issued
system.cpu1.iq.FU_type_0::SimdShift                 0      0.00%     63.54% # Type of FU issued
system.cpu1.iq.FU_type_0::SimdShiftAcc              0      0.00%     63.54% # Type of FU issued
system.cpu1.iq.FU_type_0::SimdDiv                   0      0.00%     63.54% # Type of FU issued
system.cpu1.iq.FU_type_0::SimdSqrt                  0      0.00%     63.54% # Type of FU issued
system.cpu1.iq.FU_type_0::SimdFloatAdd              0      0.00%     63.54% # Type of FU issued
system.cpu1.iq.FU_type_0::SimdFloatAlu              0      0.00%     63.54% # Type of FU issued
system.cpu1.iq.FU_type_0::SimdFloatCmp              0      0.00%     63.54% # Type of FU issued
system.cpu1.iq.FU_type_0::SimdFloatCvt              0      0.00%     63.54% # Type of FU issued
system.cpu1.iq.FU_type_0::SimdFloatDiv              0      0.00%     63.54% # Type of FU issued
system.cpu1.iq.FU_type_0::SimdFloatMisc             0      0.00%     63.54% # Type of FU issued
system.cpu1.iq.FU_type_0::SimdFloatMult             0      0.00%     63.54% # Type of FU issued
system.cpu1.iq.FU_type_0::SimdFloatMultAcc            0      0.00%     63.54% # Type of FU issued
system.cpu1.iq.FU_type_0::SimdFloatSqrt             0      0.00%     63.54% # Type of FU issued
system.cpu1.iq.FU_type_0::SimdReduceAdd             0      0.00%     63.54% # Type of FU issued
system.cpu1.iq.FU_type_0::SimdReduceAlu             0      0.00%     63.54% # Type of FU issued
system.cpu1.iq.FU_type_0::SimdReduceCmp             0      0.00%     63.54% # Type of FU issued
system.cpu1.iq.FU_type_0::SimdFloatReduceAdd            0      0.00%     63.54% # Type of FU issued
system.cpu1.iq.FU_type_0::SimdFloatReduceCmp            0      0.00%     63.54% # Type of FU issued
system.cpu1.iq.FU_type_0::SimdAes                   0      0.00%     63.54% # Type of FU issued
system.cpu1.iq.FU_type_0::SimdAesMix                0      0.00%     63.54% # Type of FU issued
system.cpu1.iq.FU_type_0::SimdSha1Hash              0      0.00%     63.54% # Type of FU issued
system.cpu1.iq.FU_type_0::SimdSha1Hash2             0      0.00%     63.54% # Type of FU issued
system.cpu1.iq.FU_type_0::SimdSha256Hash            0      0.00%     63.54% # Type of FU issued
system.cpu1.iq.FU_type_0::SimdSha256Hash2            0      0.00%     63.54% # Type of FU issued
system.cpu1.iq.FU_type_0::SimdShaSigma2             0      0.00%     63.54% # Type of FU issued
system.cpu1.iq.FU_type_0::SimdShaSigma3             0      0.00%     63.54% # Type of FU issued
system.cpu1.iq.FU_type_0::SimdPredAlu               0      0.00%     63.54% # Type of FU issued
system.cpu1.iq.FU_type_0::MemRead            12148756     29.24%     92.78% # Type of FU issued
system.cpu1.iq.FU_type_0::MemWrite            2998468      7.22%    100.00% # Type of FU issued
system.cpu1.iq.FU_type_0::FloatMemRead              0      0.00%    100.00% # Type of FU issued
system.cpu1.iq.FU_type_0::FloatMemWrite            12      0.00%    100.00% # Type of FU issued
system.cpu1.iq.FU_type_0::IprAccess                 0      0.00%    100.00% # Type of FU issued
system.cpu1.iq.FU_type_0::InstPrefetch              0      0.00%    100.00% # Type of FU issued
system.cpu1.iq.FU_type_0::total              41544737                       # Type of FU issued
system.cpu1.iq.fp_alu_accesses                     14                       # Number of floating point alu accesses
system.cpu1.iq.fp_inst_queue_reads                 26                       # Number of floating instruction queue reads
system.cpu1.iq.fp_inst_queue_wakeup_accesses           12                       # Number of floating instruction queue wakeup accesses
system.cpu1.iq.fp_inst_queue_writes                12                       # Number of floating instruction queue writes
system.cpu1.iq.fu_busy_cnt                     984646                       # FU busy when requested
system.cpu1.iq.fu_busy_rate                  0.023701                       # FU busy rate (busy events/executed inst)
system.cpu1.iq.fu_full::No_OpClass                  0      0.00%      0.00% # attempts to use FU when none available
system.cpu1.iq.fu_full::IntAlu                 154287     15.67%     15.67% # attempts to use FU when none available
system.cpu1.iq.fu_full::IntMult                     0      0.00%     15.67% # attempts to use FU when none available
system.cpu1.iq.fu_full::IntDiv                      0      0.00%     15.67% # attempts to use FU when none available
system.cpu1.iq.fu_full::FloatAdd                    0      0.00%     15.67% # attempts to use FU when none available
system.cpu1.iq.fu_full::FloatCmp                    0      0.00%     15.67% # attempts to use FU when none available
system.cpu1.iq.fu_full::FloatCvt                    0      0.00%     15.67% # attempts to use FU when none available
system.cpu1.iq.fu_full::FloatMult                   0      0.00%     15.67% # attempts to use FU when none available
system.cpu1.iq.fu_full::FloatMultAcc                0      0.00%     15.67% # attempts to use FU when none available
system.cpu1.iq.fu_full::FloatDiv                    0      0.00%     15.67% # attempts to use FU when none available
system.cpu1.iq.fu_full::FloatMisc                   0      0.00%     15.67% # attempts to use FU when none available
system.cpu1.iq.fu_full::FloatSqrt                   0      0.00%     15.67% # attempts to use FU when none available
system.cpu1.iq.fu_full::SimdAdd                     0      0.00%     15.67% # attempts to use FU when none available
system.cpu1.iq.fu_full::SimdAddAcc                  0      0.00%     15.67% # attempts to use FU when none available
system.cpu1.iq.fu_full::SimdAlu                     0      0.00%     15.67% # attempts to use FU when none available
system.cpu1.iq.fu_full::SimdCmp                     0      0.00%     15.67% # attempts to use FU when none available
system.cpu1.iq.fu_full::SimdCvt                     0      0.00%     15.67% # attempts to use FU when none available
system.cpu1.iq.fu_full::SimdMisc                    0      0.00%     15.67% # attempts to use FU when none available
system.cpu1.iq.fu_full::SimdMult                    0      0.00%     15.67% # attempts to use FU when none available
system.cpu1.iq.fu_full::SimdMultAcc                 0      0.00%     15.67% # attempts to use FU when none available
system.cpu1.iq.fu_full::SimdShift                   0      0.00%     15.67% # attempts to use FU when none available
system.cpu1.iq.fu_full::SimdShiftAcc                0      0.00%     15.67% # attempts to use FU when none available
system.cpu1.iq.fu_full::SimdDiv                     0      0.00%     15.67% # attempts to use FU when none available
system.cpu1.iq.fu_full::SimdSqrt                    0      0.00%     15.67% # attempts to use FU when none available
system.cpu1.iq.fu_full::SimdFloatAdd                0      0.00%     15.67% # attempts to use FU when none available
system.cpu1.iq.fu_full::SimdFloatAlu                0      0.00%     15.67% # attempts to use FU when none available
system.cpu1.iq.fu_full::SimdFloatCmp                0      0.00%     15.67% # attempts to use FU when none available
system.cpu1.iq.fu_full::SimdFloatCvt                0      0.00%     15.67% # attempts to use FU when none available
system.cpu1.iq.fu_full::SimdFloatDiv                0      0.00%     15.67% # attempts to use FU when none available
system.cpu1.iq.fu_full::SimdFloatMisc               0      0.00%     15.67% # attempts to use FU when none available
system.cpu1.iq.fu_full::SimdFloatMult               0      0.00%     15.67% # attempts to use FU when none available
system.cpu1.iq.fu_full::SimdFloatMultAcc            0      0.00%     15.67% # attempts to use FU when none available
system.cpu1.iq.fu_full::SimdFloatSqrt               0      0.00%     15.67% # attempts to use FU when none available
system.cpu1.iq.fu_full::SimdReduceAdd               0      0.00%     15.67% # attempts to use FU when none available
system.cpu1.iq.fu_full::SimdReduceAlu               0      0.00%     15.67% # attempts to use FU when none available
system.cpu1.iq.fu_full::SimdReduceCmp               0      0.00%     15.67% # attempts to use FU when none available
system.cpu1.iq.fu_full::SimdFloatReduceAdd            0      0.00%     15.67% # attempts to use FU when none available
system.cpu1.iq.fu_full::SimdFloatReduceCmp            0      0.00%     15.67% # attempts to use FU when none available
system.cpu1.iq.fu_full::SimdAes                     0      0.00%     15.67% # attempts to use FU when none available
system.cpu1.iq.fu_full::SimdAesMix                  0      0.00%     15.67% # attempts to use FU when none available
system.cpu1.iq.fu_full::SimdSha1Hash                0      0.00%     15.67% # attempts to use FU when none available
system.cpu1.iq.fu_full::SimdSha1Hash2               0      0.00%     15.67% # attempts to use FU when none available
system.cpu1.iq.fu_full::SimdSha256Hash              0      0.00%     15.67% # attempts to use FU when none available
system.cpu1.iq.fu_full::SimdSha256Hash2             0      0.00%     15.67% # attempts to use FU when none available
system.cpu1.iq.fu_full::SimdShaSigma2               0      0.00%     15.67% # attempts to use FU when none available
system.cpu1.iq.fu_full::SimdShaSigma3               0      0.00%     15.67% # attempts to use FU when none available
system.cpu1.iq.fu_full::SimdPredAlu                 0      0.00%     15.67% # attempts to use FU when none available
system.cpu1.iq.fu_full::MemRead                745493     75.71%     91.38% # attempts to use FU when none available
system.cpu1.iq.fu_full::MemWrite                84864      8.62%    100.00% # attempts to use FU when none available
[...]
system.cpu1.dcache.WriteReq_avg_mshr_miss_latency::total 116176.552370                       # average WriteReq mshr miss latency
system.cpu1.dcache.LoadLockedReq_hits::.cpu1.data      1173793                       # number of LoadLockedReq hits
system.cpu1.dcache.LoadLockedReq_hits::total      1173793                       # number of LoadLockedReq hits
system.cpu1.dcache.LoadLockedReq_misses::.cpu1.data         3818                       # number of LoadLockedReq misses
system.cpu1.dcache.LoadLockedReq_misses::total         3818                       # number of LoadLockedReq misses
system.cpu1.dcache.LoadLockedReq_miss_latency::.cpu1.data     73057000                       # number of LoadLockedReq miss cycles
system.cpu1.dcache.LoadLockedReq_miss_latency::total     73057000                       # number of LoadLockedReq miss cycles
system.cpu1.dcache.LoadLockedReq_accesses::.cpu1.data      1177611                       # number of LoadLockedReq accesses(hits+misses)
system.cpu1.dcache.LoadLockedReq_accesses::total      1177611                       # number of LoadLockedReq accesses(hits+misses)
system.cpu1.dcache.LoadLockedReq_miss_rate::.cpu1.data     0.003242                       # miss rate for LoadLockedReq accesses
system.cpu1.dcache.LoadLockedReq_miss_rate::total     0.003242                       # miss rate for LoadLockedReq accesses
system.cpu1.dcache.LoadLockedReq_avg_miss_latency::.cpu1.data 19134.887376                       # average LoadLockedReq miss latency
system.cpu1.dcache.LoadLockedReq_avg_miss_latency::total 19134.887376                       # average LoadLockedReq miss latency
system.cpu1.dcache.LoadLockedReq_mshr_hits::.cpu1.data          356                       # number of LoadLockedReq MSHR hits
system.cpu1.dcache.LoadLockedReq_mshr_hits::total          356                       # number of LoadLockedReq MSHR hits
system.cpu1.dcache.LoadLockedReq_mshr_misses::.cpu1.data         3462                       # number of LoadLockedReq MSHR misses
system.cpu1.dcache.LoadLockedReq_mshr_misses::total         3462                       # number of LoadLockedReq MSHR misses
system.cpu1.dcache.LoadLockedReq_mshr_miss_latency::.cpu1.data     55936500                       # number of LoadLockedReq MSHR miss cycles
system.cpu1.dcache.LoadLockedReq_mshr_miss_latency::total     55936500                       # number of LoadLockedReq MSHR miss cycles
system.cpu1.dcache.LoadLockedReq_mshr_miss_rate::.cpu1.data     0.002940                       # mshr miss rate for LoadLockedReq accesses
system.cpu1.dcache.LoadLockedReq_mshr_miss_rate::total     0.002940                       # mshr miss rate for LoadLockedReq accesses
system.cpu1.dcache.LoadLockedReq_avg_mshr_miss_latency::.cpu1.data 16157.279029                       # average LoadLockedReq mshr miss latency
system.cpu1.dcache.LoadLockedReq_avg_mshr_miss_latency::total 16157.279029                       # average LoadLockedReq mshr miss latency
system.cpu1.dcache.StoreCondReq_hits::.cpu1.data      1166120                       # number of StoreCondReq hits
system.cpu1.dcache.StoreCondReq_hits::total      1166120                       # number of StoreCondReq hits
system.cpu1.dcache.StoreCondReq_misses::.cpu1.data         7913                       # number of StoreCondReq misses
system.cpu1.dcache.StoreCondReq_misses::total         7913                       # number of StoreCondReq misses
system.cpu1.dcache.StoreCondReq_miss_latency::.cpu1.data     84589000                       # number of StoreCondReq miss cycles
system.cpu1.dcache.StoreCondReq_miss_latency::total     84589000                       # number of StoreCondReq miss cycles
system.cpu1.dcache.StoreCondReq_accesses::.cpu1.data      1174033                       # number of StoreCondReq accesses(hits+misses)
system.cpu1.dcache.StoreCondReq_accesses::total      1174033                       # number of StoreCondReq accesses(hits+misses)
system.cpu1.dcache.StoreCondReq_miss_rate::.cpu1.data     0.006740                       # miss rate for StoreCondReq accesses
system.cpu1.dcache.StoreCondReq_miss_rate::total     0.006740                       # miss rate for StoreCondReq accesses
system.cpu1.dcache.StoreCondReq_avg_miss_latency::.cpu1.data 10689.877417                       # average StoreCondReq miss latency
system.cpu1.dcache.StoreCondReq_avg_miss_latency::total 10689.877417                       # average StoreCondReq miss latency
system.cpu1.dcache.StoreCondReq_mshr_misses::.cpu1.data         7776                       # number of StoreCondReq MSHR misses
system.cpu1.dcache.StoreCondReq_mshr_misses::total         7776                       # number of StoreCondReq MSHR misses
system.cpu1.dcache.StoreCondReq_mshr_miss_latency::.cpu1.data     77049000                       # number of StoreCondReq MSHR miss cycles
system.cpu1.dcache.StoreCondReq_mshr_miss_latency::total     77049000                       # number of StoreCondReq MSHR miss cycles
system.cpu1.dcache.StoreCondReq_mshr_miss_rate::.cpu1.data     0.006623                       # mshr miss rate for StoreCondReq accesses
system.cpu1.dcache.StoreCondReq_mshr_miss_rate::total     0.006623                       # mshr miss rate for StoreCondReq accesses
system.cpu1.dcache.StoreCondReq_avg_mshr_miss_latency::.cpu1.data  9908.564815                       # average StoreCondReq mshr miss latency
system.cpu1.dcache.StoreCondReq_avg_mshr_miss_latency::total  9908.564815                       # average StoreCondReq mshr miss latency
system.cpu1.dcache.StoreCondFailReq_miss_latency::.cpu1.data      3076000                       # number of StoreCondFailReq miss cycles
system.cpu1.dcache.StoreCondFailReq_miss_latency::total      3076000                       # number of StoreCondFailReq miss cycles
system.cpu1.dcache.StoreCondFailReq_avg_miss_latency::.cpu1.data          inf                       # average StoreCondFailReq miss latency
system.cpu1.dcache.StoreCondFailReq_avg_miss_latency::total          inf                       # average StoreCondFailReq miss latency
system.cpu1.dcache.StoreCondFailReq_mshr_miss_latency::.cpu1.data      2840000                       # number of StoreCondFailReq MSHR miss cycles
system.cpu1.dcache.StoreCondFailReq_mshr_miss_latency::total      2840000                       # number of StoreCondFailReq MSHR miss cycles
system.cpu1.dcache.StoreCondFailReq_avg_mshr_miss_latency::.cpu1.data          inf                       # average StoreCondFailReq mshr miss latency
system.cpu1.dcache.StoreCondFailReq_avg_mshr_miss_latency::total          inf                       # average StoreCondFailReq mshr miss latency
system.cpu1.dcache.SwapReq_hits::.cpu1.data       205792                       # number of SwapReq hits
system.cpu1.dcache.SwapReq_hits::total         205792                       # number of SwapReq hits
system.cpu1.dcache.SwapReq_misses::.cpu1.data       671774                       # number of SwapReq misses
system.cpu1.dcache.SwapReq_misses::total       671774                       # number of SwapReq misses
system.cpu1.dcache.SwapReq_miss_latency::.cpu1.data  68633033319                       # number of SwapReq miss cycles
system.cpu1.dcache.SwapReq_miss_latency::total  68633033319                       # number of SwapReq miss cycles
system.cpu1.dcache.SwapReq_accesses::.cpu1.data       877566                       # number of SwapReq accesses(hits+misses)
system.cpu1.dcache.SwapReq_accesses::total       877566                       # number of SwapReq accesses(hits+misses)
system.cpu1.dcache.SwapReq_miss_rate::.cpu1.data     0.765497                       # miss rate for SwapReq accesses
system.cpu1.dcache.SwapReq_miss_rate::total     0.765497                       # miss rate for SwapReq accesses
system.cpu1.dcache.SwapReq_avg_miss_latency::.cpu1.data 102166.849743                       # average SwapReq miss latency
system.cpu1.dcache.SwapReq_avg_miss_latency::total 102166.849743                       # average SwapReq miss latency
system.cpu1.dcache.SwapReq_mshr_hits::.cpu1.data            1                       # number of SwapReq MSHR hits
system.cpu1.dcache.SwapReq_mshr_hits::total            1                       # number of SwapReq MSHR hits
system.cpu1.dcache.SwapReq_mshr_misses::.cpu1.data       671773                       # number of SwapReq MSHR misses
system.cpu1.dcache.SwapReq_mshr_misses::total       671773                       # number of SwapReq MSHR misses
system.cpu1.dcache.SwapReq_mshr_miss_latency::.cpu1.data  67961248819                       # number of SwapReq MSHR miss cycles
system.cpu1.dcache.SwapReq_mshr_miss_latency::total  67961248819                       # number of SwapReq MSHR miss cycles
system.cpu1.dcache.SwapReq_mshr_miss_rate::.cpu1.data     0.765496                       # mshr miss rate for SwapReq accesses
system.cpu1.dcache.SwapReq_mshr_miss_rate::total     0.765496                       # mshr miss rate for SwapReq accesses
system.cpu1.dcache.SwapReq_avg_mshr_miss_latency::.cpu1.data 101166.984709                       # average SwapReq mshr miss latency
system.cpu1.dcache.SwapReq_avg_mshr_miss_latency::total 101166.984709                       # average SwapReq mshr miss latency
system.cpu1.dcache.tags.pwrStateResidencyTicks::UNDEFINED 438584904500                       # Cumulative time (in ticks) in various power states
system.cpu1.dcache.tags.tagsinuse           31.608741                       # Cycle average of tags in use
system.cpu1.dcache.tags.total_refs           44159730                       # Total number of references to valid blocks.
system.cpu1.dcache.tags.sampled_refs          7471138                       # Sample count of references to valid blocks.
system.cpu1.dcache.tags.avg_refs             5.910710                       # Average number of references to valid blocks.
system.cpu1.dcache.tags.warmup_cycle                0                       # Cycle when the warmup percentage was hit.
system.cpu1.dcache.tags.occ_blocks::.cpu1.data    31.608741                       # Average occupied blocks per requestor
system.cpu1.dcache.tags.occ_percent::.cpu1.data     0.987773                       # Average percentage of cache occupancy
system.cpu1.dcache.tags.occ_percent::total     0.987773                       # Average percentage of cache occupancy
system.cpu1.dcache.tags.occ_task_id_blocks::1024           27                       # Occupied blocks per task id
system.cpu1.dcache.tags.age_task_id_blocks_1024::1           27                       # Occupied blocks per task id
system.cpu1.dcache.tags.occ_task_id_percent::1024     0.843750                       # Percentage of cache occupancy per task id
system.cpu1.dcache.tags.tag_accesses        105824400                       # Number of tag accesses
system.cpu1.dcache.tags.data_accesses       105824400                       # Number of data accesses
system.cpu_clk_domain.clock                       500                       # Clock period in ticks
system.tol2bus.pwrStateResidencyTicks::UNDEFINED 438584904500                       # Cumulative time (in ticks) in various power states
system.tol2bus.trans_dist::ReadResp          25848998                       # Transaction distribution
system.tol2bus.trans_dist::ReadRespWithInvalidate           27                       # Transaction distribution
system.tol2bus.trans_dist::WritebackDirty     12062455                       # Transaction distribution
system.tol2bus.trans_dist::WritebackClean     23688072                       # Transaction distribution
system.tol2bus.trans_dist::CleanEvict        68035401                       # Transaction distribution
system.tol2bus.trans_dist::HardPFReq         34336567                       # Transaction distribution
system.tol2bus.trans_dist::HardPFResp              23                       # Transaction distribution
system.tol2bus.trans_dist::UpgradeReq           27673                       # Transaction distribution
system.tol2bus.trans_dist::SCUpgradeReq         30064                       # Transaction distribution
system.tol2bus.trans_dist::UpgradeResp          57737                       # Transaction distribution
system.tol2bus.trans_dist::SCUpgradeFailReq          822                       # Transaction distribution
system.tol2bus.trans_dist::UpgradeFailResp          822                       # Transaction distribution
system.tol2bus.trans_dist::ReadExReq          4261203                       # Transaction distribution
system.tol2bus.trans_dist::ReadExResp         4261204                       # Transaction distribution
system.tol2bus.trans_dist::ReadCleanReq        228723                       # Transaction distribution
system.tol2bus.trans_dist::ReadSharedReq     25620304                       # Transaction distribution
system.tol2bus.trans_dist::InvalidateReq         2881                       # Transaction distribution
system.tol2bus.trans_dist::InvalidateResp         2881                       # Transaction distribution
system.tol2bus.pkt_count_system.cpu0.icache.mem_side::system.l2.cpu_side       260805                       # Packet count per connected master and slave (bytes)
system.tol2bus.pkt_count_system.cpu0.dcache.mem_side::system.l2.cpu_side     22325028                       # Packet count per connected master and slave (bytes)
system.tol2bus.pkt_count_system.cpu1.icache.mem_side::system.l2.cpu_side       146958                       # Packet count per connected master and slave (bytes)
system.tol2bus.pkt_count_system.cpu1.dcache.mem_side::system.l2.cpu_side     22358883                       # Packet count per connected master and slave (bytes)
system.tol2bus.pkt_count_system.cpu2.icache.mem_side::system.l2.cpu_side       140019                       # Packet count per connected master and slave (bytes)
system.tol2bus.pkt_count_system.cpu2.dcache.mem_side::system.l2.cpu_side     22307320                       # Packet count per connected master and slave (bytes)
system.tol2bus.pkt_count_system.cpu3.icache.mem_side::system.l2.cpu_side       138372                       # Packet count per connected master and slave (bytes)
system.tol2bus.pkt_count_system.cpu3.dcache.mem_side::system.l2.cpu_side     22451777                       # Packet count per connected master and slave (bytes)
system.tol2bus.pkt_count::total              90129162                       # Packet count per connected master and slave (bytes)
system.tol2bus.pkt_size_system.cpu0.icache.mem_side::system.l2.cpu_side     11127360                       # Cumulative packet size per connected master and slave (bytes)
system.tol2bus.pkt_size_system.cpu0.dcache.mem_side::system.l2.cpu_side    950126464                       # Cumulative packet size per connected master and slave (bytes)
system.tol2bus.pkt_size_system.cpu1.icache.mem_side::system.l2.cpu_side      6270208                       # Cumulative packet size per connected master and slave (bytes)
system.tol2bus.pkt_size_system.cpu1.dcache.mem_side::system.l2.cpu_side    951591488                       # Cumulative packet size per connected master and slave (bytes)
system.tol2bus.pkt_size_system.cpu2.icache.mem_side::system.l2.cpu_side      5974144                       # Cumulative packet size per connected master and slave (bytes)
system.tol2bus.pkt_size_system.cpu2.dcache.mem_side::system.l2.cpu_side    949448256                       # Cumulative packet size per connected master and slave (bytes)
system.tol2bus.pkt_size_system.cpu3.icache.mem_side::system.l2.cpu_side      5903872                       # Cumulative packet size per connected master and slave (bytes)
system.tol2bus.pkt_size_system.cpu3.dcache.mem_side::system.l2.cpu_side    955576448                       # Cumulative packet size per connected master and slave (bytes)
system.tol2bus.pkt_size::total             3836018240                       # Cumulative packet size per connected master and slave (bytes)
system.tol2bus.snoops                       108336718                       # Total snoops (count)
system.tol2bus.snoopTraffic                 379125696                       # Total snoop traffic (bytes)
system.tol2bus.snoop_fanout::samples        139878894                       # Request fanout histogram
system.tol2bus.snoop_fanout::mean            0.247272                       # Request fanout histogram
system.tol2bus.snoop_fanout::stdev           0.543606                       # Request fanout histogram
system.tol2bus.snoop_fanout::underflows             0      0.00%      0.00% # Request fanout histogram
system.tol2bus.snoop_fanout::0              110223726     78.80%     78.80% # Request fanout histogram
system.tol2bus.snoop_fanout::1               26872136     19.21%     98.01% # Request fanout histogram
system.tol2bus.snoop_fanout::2                1200116      0.86%     98.87% # Request fanout histogram
system.tol2bus.snoop_fanout::3                1015913      0.73%     99.59% # Request fanout histogram
system.tol2bus.snoop_fanout::4                 567003      0.41%    100.00% # Request fanout histogram
system.tol2bus.snoop_fanout::5                      0      0.00%    100.00% # Request fanout histogram
system.tol2bus.snoop_fanout::6                      0      0.00%    100.00% # Request fanout histogram
system.tol2bus.snoop_fanout::7                      0      0.00%    100.00% # Request fanout histogram
system.tol2bus.snoop_fanout::8                      0      0.00%    100.00% # Request fanout histogram
system.tol2bus.snoop_fanout::overflows              0      0.00%    100.00% # Request fanout histogram
system.tol2bus.snoop_fanout::min_value              0                       # Request fanout histogram
system.tol2bus.snoop_fanout::max_value              4                       # Request fanout histogram
system.tol2bus.snoop_fanout::total          139878894                       # Request fanout histogram
system.tol2bus.reqLayer0.occupancy        63139114031                       # Layer occupancy (ticks)
system.tol2bus.reqLayer0.utilization             14.4                       # Layer utilization (%)
system.tol2bus.respLayer5.occupancy       11213565613                       # Layer occupancy (ticks)
system.tol2bus.respLayer5.utilization             2.6                       # Layer utilization (%)
system.tol2bus.respLayer4.occupancy          71726210                       # Layer occupancy (ticks)
system.tol2bus.respLayer4.utilization             0.0                       # Layer utilization (%)
system.tol2bus.respLayer7.occupancy       11286050367                       # Layer occupancy (ticks)
system.tol2bus.respLayer7.utilization             2.6                       # Layer utilization (%)
system.tol2bus.respLayer6.occupancy          70905213                       # Layer occupancy (ticks)
system.tol2bus.respLayer6.utilization             0.0                       # Layer utilization (%)
system.tol2bus.respLayer1.occupancy       11219130836                       # Layer occupancy (ticks)
system.tol2bus.respLayer1.utilization             2.6                       # Layer utilization (%)
system.tol2bus.respLayer0.occupancy         131535649                       # Layer occupancy (ticks)
system.tol2bus.respLayer0.utilization             0.0                       # Layer utilization (%)
system.tol2bus.respLayer3.occupancy       11239777568                       # Layer occupancy (ticks)
system.tol2bus.respLayer3.utilization             2.6                       # Layer utilization (%)
system.tol2bus.respLayer2.occupancy          75263099                       # Layer occupancy (ticks)
system.tol2bus.respLayer2.utilization             0.0                       # Layer utilization (%)
system.tol2bus.snoopLayer0.occupancy            34512                       # Layer occupancy (ticks)
system.tol2bus.snoopLayer0.utilization            0.0                       # Layer utilization (%)

---------- End Simulation Statistics   ----------
