
---------- Begin Simulation Statistics ----------
final_tick                               1968408036500                       # Number of ticks from beginning of simulation (restored from checkpoints and never reset)
host_inst_rate                                  98287                       # Simulator instruction rate (inst/s)
host_mem_usage                                 702460                       # Number of bytes of host memory used
host_op_rate                                    98604                       # Simulator op (including micro ops) rate (op/s)
host_seconds                                 23962.83                       # Real time elapsed on the host
host_tick_rate                               82144224                       # Simulator tick rate (ticks/s)
sim_freq                                 1000000000000                       # Frequency of simulated ticks
sim_insts                                  2355224007                       # Number of instructions simulated
sim_ops                                    2362832916                       # Number of ops (including micro ops) simulated
sim_seconds                                  1.968408                       # Number of seconds simulated
sim_ticks                                1968408036500                       # Number of ticks simulated
system.cpu0.branchPred.BTBCorrect                   0                       # Number of correct BTB predictions (this stat may not work properly.
system.cpu0.branchPred.BTBHitPct            87.810159                       # BTB Hit Percentage
system.cpu0.branchPred.BTBHits              297410122                       # Number of BTB hits
system.cpu0.branchPred.BTBLookups           338696714                       # Number of BTB lookups
system.cpu0.branchPred.RASInCorrect                 0                       # Number of incorrect RAS predictions.
system.cpu0.branchPred.condIncorrect         26841076                       # Number of conditional branches incorrect
system.cpu0.branchPred.condPredicted        463028603                       # Number of conditional branches predicted
system.cpu0.branchPred.indirectHits          40140031                       # Number of indirect target hits.
system.cpu0.branchPred.indirectLookups       40774486                       # Number of indirect predictor lookups.
system.cpu0.branchPred.indirectMisses          634455                       # Number of indirect misses.
system.cpu0.branchPred.lookups              589463370                       # Number of BP lookups
system.cpu0.branchPred.usedRAS                      0                       # Number of times the RAS was used to get a target.
system.cpu0.branchPredindirectMispredicted      3958382                       # Number of mispredicted indirect branches.
system.cpu0.commit.amos                       3801866                       # Number of atomic instructions committed
system.cpu0.commit.branchMispredicts         17417709                       # The number of times a branch was mispredicted
system.cpu0.commit.branches                 555109018                       # Number of branches committed
system.cpu0.commit.bw_lim_events             60407129                       # number cycles where commit BW limit reached
system.cpu0.commit.commitNonSpecStalls       11419499                       # The number of times commit has been forced to stall to communicate backwards
system.cpu0.commit.commitSquashedInsts       97947046                       # The number of squashed insts skipped by commit
system.cpu0.commit.committedInsts          2225136636                       # Number of instructions committed
system.cpu0.commit.committedOps            2228943790                       # Number of ops (including micro ops) committed
system.cpu0.commit.committed_per_cycle::samples   3642635197                       # Number of insts commited each cycle
system.cpu0.commit.committed_per_cycle::mean     0.611904                       # Number of insts commited each cycle
system.cpu0.commit.committed_per_cycle::stdev     1.374766                       # Number of insts commited each cycle
system.cpu0.commit.committed_per_cycle::underflows            0      0.00%      0.00% # Number of insts commited each cycle
system.cpu0.commit.committed_per_cycle::0   2572384524     70.62%     70.62% # Number of insts commited each cycle
system.cpu0.commit.committed_per_cycle::1    633353721     17.39%     88.01% # Number of insts commited each cycle
system.cpu0.commit.committed_per_cycle::2    151565847      4.16%     92.17% # Number of insts commited each cycle
system.cpu0.commit.committed_per_cycle::3    146996113      4.04%     96.20% # Number of insts commited each cycle
system.cpu0.commit.committed_per_cycle::4     45728358      1.26%     97.46% # Number of insts commited each cycle
system.cpu0.commit.committed_per_cycle::5     15801404      0.43%     97.89% # Number of insts commited each cycle
system.cpu0.commit.committed_per_cycle::6      8494155      0.23%     98.12% # Number of insts commited each cycle
system.cpu0.commit.committed_per_cycle::7      7903946      0.22%     98.34% # Number of insts commited each cycle
system.cpu0.commit.committed_per_cycle::8     60407129      1.66%    100.00% # Number of insts commited each cycle
system.cpu0.commit.committed_per_cycle::overflows            0      0.00%    100.00% # Number of insts commited each cycle
system.cpu0.commit.committed_per_cycle::min_value            0                       # Number of insts commited each cycle
system.cpu0.commit.committed_per_cycle::max_value            8                       # Number of insts commited each cycle
system.cpu0.commit.committed_per_cycle::total   3642635197                       # Number of insts commited each cycle
system.cpu0.commit.fp_insts                        50                       # Number of committed floating point instructions.
system.cpu0.commit.function_calls            44169255                       # Number of function calls committed.
system.cpu0.commit.int_insts               2151227065                       # Number of committed integer instructions.
system.cpu0.commit.loads                    691603196                       # Number of loads committed
system.cpu0.commit.membars                    7608896                       # Number of memory barriers committed
system.cpu0.commit.op_class_0::No_OpClass      7608902      0.34%      0.34% # Class of committed instruction
system.cpu0.commit.op_class_0::IntAlu      1239010369     55.59%     55.93% # Class of committed instruction
system.cpu0.commit.op_class_0::IntMult       18318071      0.82%     56.75% # Class of committed instruction
system.cpu0.commit.op_class_0::IntDiv         3801411      0.17%     56.92% # Class of committed instruction
system.cpu0.commit.op_class_0::FloatAdd             0      0.00%     56.92% # Class of committed instruction
system.cpu0.commit.op_class_0::FloatCmp             4      0.00%     56.92% # Class of committed instruction
system.cpu0.commit.op_class_0::FloatCvt            12      0.00%     56.92% # Class of committed instruction
system.cpu0.commit.op_class_0::FloatMult            0      0.00%     56.92% # Class of committed instruction
system.cpu0.commit.op_class_0::FloatMultAcc            0      0.00%     56.92% # Class of committed instruction
system.cpu0.commit.op_class_0::FloatDiv             2      0.00%     56.92% # Class of committed instruction
system.cpu0.commit.op_class_0::FloatMisc            4      0.00%     56.92% # Class of committed instruction
system.cpu0.commit.op_class_0::FloatSqrt            0      0.00%     56.92% # Class of committed instruction
system.cpu0.commit.op_class_0::SimdAdd              0      0.00%     56.92% # Class of committed instruction
system.cpu0.commit.op_class_0::SimdAddAcc            0      0.00%     56.92% # Class of committed instruction
system.cpu0.commit.op_class_0::SimdAlu              0      0.00%     56.92% # Class of committed instruction
system.cpu0.commit.op_class_0::SimdCmp              0      0.00%     56.92% # Class of committed instruction
system.cpu0.commit.op_class_0::SimdCvt              0      0.00%     56.92% # Class of committed instruction
system.cpu0.commit.op_class_0::SimdMisc             0      0.00%     56.92% # Class of committed instruction
system.cpu0.commit.op_class_0::SimdMult             0      0.00%     56.92% # Class of committed instruction
system.cpu0.commit.op_class_0::SimdMultAcc            0      0.00%     56.92% # Class of committed instruction
system.cpu0.commit.op_class_0::SimdShift            0      0.00%     56.92% # Class of committed instruction
system.cpu0.commit.op_class_0::SimdShiftAcc            0      0.00%     56.92% # Class of committed instruction
system.cpu0.commit.op_class_0::SimdDiv              0      0.00%     56.92% # Class of committed instruction
system.cpu0.commit.op_class_0::SimdSqrt             0      0.00%     56.92% # Class of committed instruction
system.cpu0.commit.op_class_0::SimdFloatAdd            0      0.00%     56.92% # Class of committed instruction
system.cpu0.commit.op_class_0::SimdFloatAlu            0      0.00%     56.92% # Class of committed instruction
system.cpu0.commit.op_class_0::SimdFloatCmp            0      0.00%     56.92% # Class of committed instruction
system.cpu0.commit.op_class_0::SimdFloatCvt            0      0.00%     56.92% # Class of committed instruction
system.cpu0.commit.op_class_0::SimdFloatDiv            0      0.00%     56.92% # Class of committed instruction
system.cpu0.commit.op_class_0::SimdFloatMisc            0      0.00%     56.92% # Class of committed instruction
system.cpu0.commit.op_class_0::SimdFloatMult            0      0.00%     56.92% # Class of committed instruction
system.cpu0.commit.op_class_0::SimdFloatMultAcc            0      0.00%     56.92% # Class of committed instruction
system.cpu0.commit.op_class_0::SimdFloatSqrt            0      0.00%     56.92% # Class of committed instruction
system.cpu0.commit.op_class_0::SimdReduceAdd            0      0.00%     56.92% # Class of committed instruction
system.cpu0.commit.op_class_0::SimdReduceAlu            0      0.00%     56.92% # Class of committed instruction
system.cpu0.commit.op_class_0::SimdReduceCmp            0      0.00%     56.92% # Class of committed instruction
system.cpu0.commit.op_class_0::SimdFloatReduceAdd            0      0.00%     56.92% # Class of committed instruction
system.cpu0.commit.op_class_0::SimdFloatReduceCmp            0      0.00%     56.92% # Class of committed instruction
system.cpu0.commit.op_class_0::SimdAes              0      0.00%     56.92% # Class of committed instruction
system.cpu0.commit.op_class_0::SimdAesMix            0      0.00%     56.92% # Class of committed instruction
system.cpu0.commit.op_class_0::SimdSha1Hash            0      0.00%     56.92% # Class of committed instruction
system.cpu0.commit.op_class_0::SimdSha1Hash2            0      0.00%     56.92% # Class of committed instruction
system.cpu0.commit.op_class_0::SimdSha256Hash            0      0.00%     56.92% # Class of committed instruction
system.cpu0.commit.op_class_0::SimdSha256Hash2            0      0.00%     56.92% # Class of committed instruction
system.cpu0.commit.op_class_0::SimdShaSigma2            0      0.00%     56.92% # Class of committed instruction
system.cpu0.commit.op_class_0::SimdShaSigma3            0      0.00%     56.92% # Class of committed instruction
system.cpu0.commit.op_class_0::SimdPredAlu            0      0.00%     56.92% # Class of committed instruction
system.cpu0.commit.op_class_0::MemRead      695405054     31.20%     88.12% # Class of committed instruction
system.cpu0.commit.op_class_0::MemWrite     264799933     11.88%    100.00% # Class of committed instruction
system.cpu0.commit.op_class_0::FloatMemRead            8      0.00%    100.00% # Class of committed instruction
system.cpu0.commit.op_class_0::FloatMemWrite           20      0.00%    100.00% # Class of committed instruction
system.cpu0.commit.op_class_0::IprAccess            0      0.00%    100.00% # Class of committed instruction
system.cpu0.commit.op_class_0::InstPrefetch            0      0.00%    100.00% # Class of committed instruction
system.cpu0.commit.op_class_0::total       2228943790                       # Class of committed instruction
system.cpu0.commit.refs                     960205015                       # Number of memory references committed
system.cpu0.commit.swp_count                        0                       # Number of s/w prefetches committed
system.cpu0.commit.vec_insts                        0                       # Number of committed Vector instructions.
system.cpu0.committedInsts                 2225136636                       # Number of Instructions Simulated
system.cpu0.committedOps                   2228943790                       # Number of Ops (including micro ops) Simulated
system.cpu0.cpi                              1.766394                       # CPI: Cycles Per Instruction
system.cpu0.cpi_total                        1.766394                       # CPI: Total CPI of All Threads
system.cpu0.decode.BlockedCycles            704827102                       # Number of cycles decode is blocked
system.cpu0.decode.BranchMispred              9436862                       # Number of times decode detected a branch misprediction
system.cpu0.decode.BranchResolved           294359804                       # Number of times decode resolved a branch
system.cpu0.decode.DecodedInsts            2365534271                       # Number of instructions handled by decode
system.cpu0.decode.IdleCycles              1321065754                       # Number of cycles decode is idle
system.cpu0.decode.RunCycles               1614187752                       # Number of cycles decode is running
system.cpu0.decode.SquashCycles              17433909                       # Number of cycles decode is squashing
system.cpu0.decode.SquashedInsts             23826790                       # Number of squashed instructions handled by decode
system.cpu0.decode.UnblockCycles             10831294                       # Number of cycles decode is unblocking
system.cpu0.dtb.accesses                            0                       # DTB accesses
system.cpu0.dtb.hits                                0                       # DTB hits
system.cpu0.dtb.misses                              0                       # DTB misses
system.cpu0.dtb.read_accesses                       0                       # DTB read accesses
system.cpu0.dtb.read_hits                           0                       # DTB read hits
system.cpu0.dtb.read_misses                         0                       # DTB read misses
system.cpu0.dtb.write_accesses                      0                       # DTB write accesses
system.cpu0.dtb.write_hits                          0                       # DTB write hits
system.cpu0.dtb.write_misses                        0                       # DTB write misses
system.cpu0.fetch.Branches                  589463370                       # Number of branches that fetch encountered
system.cpu0.fetch.CacheLines                401410458                       # Number of cache lines fetched
system.cpu0.fetch.Cycles                   2346919424                       # Number of cycles fetch has run and was not squashing or blocked
system.cpu0.fetch.IcacheSquashes             10747401                       # Number of outstanding Icache misses that were squashed
system.cpu0.fetch.IcacheWaitRetryStallCycles          120                       # Number of stall cycles due to full MSHR
system.cpu0.fetch.Insts                    2408140196                       # Number of instructions fetch has processed
system.cpu0.fetch.MiscStallCycles                  56                       # Number of cycles fetch has spent waiting on interrupts, or bad addresses, or out of MSHRs
system.cpu0.fetch.PendingTrapStallCycles          130                       # Number of stall cycles due to pending traps
system.cpu0.fetch.SquashCycles               53714594                       # Number of cycles fetch has spent squashing
system.cpu0.fetch.branchRate                 0.149973                       # Number of branch fetches per cycle
system.cpu0.fetch.icacheStallCycles        1294568784                       # Number of cycles fetch is stalled on an Icache miss
system.cpu0.fetch.predictedBranches         337550153                       # Number of branches that fetch has predicted taken
system.cpu0.fetch.rate                       0.612685                       # Number of inst fetches per cycle
system.cpu0.fetch.rateDist::samples        3668345811                       # Number of instructions fetched each cycle (Total)
system.cpu0.fetch.rateDist::mean             0.657503                       # Number of instructions fetched each cycle (Total)
system.cpu0.fetch.rateDist::stdev            0.914488                       # Number of instructions fetched each cycle (Total)
system.cpu0.fetch.rateDist::underflows              0      0.00%      0.00% # Number of instructions fetched each cycle (Total)
system.cpu0.fetch.rateDist::0              1981620687     54.02%     54.02% # Number of instructions fetched each cycle (Total)
system.cpu0.fetch.rateDist::1              1242007810     33.86%     87.88% # Number of instructions fetched each cycle (Total)
system.cpu0.fetch.rateDist::2               231852207      6.32%     94.20% # Number of instructions fetched each cycle (Total)
system.cpu0.fetch.rateDist::3               168764076      4.60%     98.80% # Number of instructions fetched each cycle (Total)
system.cpu0.fetch.rateDist::4                33089949      0.90%     99.70% # Number of instructions fetched each cycle (Total)
system.cpu0.fetch.rateDist::5                 6097009      0.17%     99.87% # Number of instructions fetched each cycle (Total)
system.cpu0.fetch.rateDist::6                 1106854      0.03%     99.90% # Number of instructions fetched each cycle (Total)
system.cpu0.fetch.rateDist::7                     438      0.00%     99.90% # Number of instructions fetched each cycle (Total)
system.cpu0.fetch.rateDist::8                 3806781      0.10%    100.00% # Number of instructions fetched each cycle (Total)
system.cpu0.fetch.rateDist::overflows               0      0.00%    100.00% # Number of instructions fetched each cycle (Total)
system.cpu0.fetch.rateDist::min_value               0                       # Number of instructions fetched each cycle (Total)
system.cpu0.fetch.rateDist::max_value               8                       # Number of instructions fetched each cycle (Total)
system.cpu0.fetch.rateDist::total          3668345811                       # Number of instructions fetched each cycle (Total)
system.cpu0.fp_regfile_reads                       44                       # number of floating regfile reads
system.cpu0.fp_regfile_writes                      24                       # number of floating regfile writes
system.cpu0.idleCycles                      262122561                       # Total number of cycles that the CPU has spent unscheduled due to idling
system.cpu0.iew.branchMispredicts            17651069                       # Number of branch mispredicts detected at execute
system.cpu0.iew.exec_branches               567270498                       # Number of branches executed
system.cpu0.iew.exec_nop                            0                       # number of nop insts executed
system.cpu0.iew.exec_rate                    0.588545                       # Inst execution rate
system.cpu0.iew.exec_refs                  1011042961                       # number of memory reference insts executed
system.cpu0.iew.exec_stores                 278469303                       # Number of stores executed
system.cpu0.iew.exec_swp                            0                       # number of swp insts executed
system.cpu0.iew.iewBlockCycles              579838249                       # Number of cycles IEW is blocking
system.cpu0.iew.iewDispLoadInsts            730149798                       # Number of dispatched load instructions
system.cpu0.iew.iewDispNonSpecInsts           3810809                       # Number of dispatched non-speculative instructions
system.cpu0.iew.iewDispSquashedInsts          9923635                       # Number of squashed instructions skipped by dispatch
system.cpu0.iew.iewDispStoreInsts           280576544                       # Number of dispatched store instructions
system.cpu0.iew.iewDispatchedInsts         2326846959                       # Number of instructions dispatched to IQ
system.cpu0.iew.iewExecLoadInsts            732573658                       # Number of load instructions executed
system.cpu0.iew.iewExecSquashedInsts         10343451                       # Number of squashed instructions skipped in execute
system.cpu0.iew.iewExecutedInsts           2313258523                       # Number of executed instructions
system.cpu0.iew.iewIQFullEvents               3772822                       # Number of times the IQ has become full, causing a stall
system.cpu0.iew.iewIdleCycles                       0                       # Number of cycles IEW is idle
system.cpu0.iew.iewLSQFullEvents              8691197                       # Number of times the LSQ has become full, causing a stall
system.cpu0.iew.iewSquashCycles              17433909                       # Number of cycles IEW is squashing
system.cpu0.iew.iewUnblockCycles             16529886                       # Number of cycles IEW is unblocking
system.cpu0.iew.lsq.thread0.blockedLoads            0                       # Number of blocked loads due to partial load-store forwarding
system.cpu0.iew.lsq.thread0.cacheBlocked       228980                       # Number of times an access to memory failed due to the cache being blocked
system.cpu0.iew.lsq.thread0.forwLoads        37557436                       # Number of loads that had data forwarded from stores
system.cpu0.iew.lsq.thread0.ignoredResponses       166846                       # Number of memory responses ignored because the instruction is squashed
system.cpu0.iew.lsq.thread0.invAddrLoads            0                       # Number of loads ignored due to an invalid address
system.cpu0.iew.lsq.thread0.invAddrSwpfs            0                       # Number of software prefetches ignored due to an invalid address
system.cpu0.iew.lsq.thread0.memOrderViolation        16428                       # Number of memory ordering violations
system.cpu0.iew.lsq.thread0.rescheduledLoads      9031901                       # Number of loads that were rescheduled
system.cpu0.iew.lsq.thread0.squashedLoads     38546602                       # Number of loads squashed
system.cpu0.iew.lsq.thread0.squashedStores     11974725                       # Number of stores squashed
system.cpu0.iew.memOrderViolationEvents         16428                       # Number of memory order violations
system.cpu0.iew.predictedNotTakenIncorrect      2000542                       # Number of branches that were predicted not taken incorrectly
system.cpu0.iew.predictedTakenIncorrect      15650527                       # Number of branches that were predicted taken incorrectly
system.cpu0.iew.wb_consumers               1043209254                       # num instructions consuming a value
system.cpu0.iew.wb_count                   2296864899                       # cumulative count of insts written-back
system.cpu0.iew.wb_fanout                    0.840673                       # average fanout of values written-back
system.cpu0.iew.wb_producers                876998313                       # num instructions producing a value
system.cpu0.iew.wb_rate                      0.584374                       # insts written-back per cycle
system.cpu0.iew.wb_sent                    2297068899                       # cumulative count of insts sent to commit
system.cpu0.int_regfile_reads              2829231437                       # number of integer regfile reads
system.cpu0.int_regfile_writes             1467969451                       # number of integer regfile writes
system.cpu0.ipc                              0.566125                       # IPC: Instructions Per Cycle
system.cpu0.ipc_total                        0.566125                       # IPC: Total IPC of All Threads
system.cpu0.iq.FU_type_0::No_OpClass          7611790      0.33%      0.33% # Type of FU issued
system.cpu0.iq.FU_type_0::IntAlu           1278592994     55.03%     55.35% # Type of FU issued
system.cpu0.iq.FU_type_0::IntMult            18650326      0.80%     56.16% # Type of FU issued
system.cpu0.iq.FU_type_0::IntDiv              3802442      0.16%     56.32% # Type of FU issued
system.cpu0.iq.FU_type_0::FloatAdd                  0      0.00%     56.32% # Type of FU issued
system.cpu0.iq.FU_type_0::FloatCmp                  4      0.00%     56.32% # Type of FU issued
system.cpu0.iq.FU_type_0::FloatCvt                 12      0.00%     56.32% # Type of FU issued
system.cpu0.iq.FU_type_0::FloatMult                 0      0.00%     56.32% # Type of FU issued
system.cpu0.iq.FU_type_0::FloatMultAcc              0      0.00%     56.32% # Type of FU issued
system.cpu0.iq.FU_type_0::FloatDiv                  2      0.00%     56.32% # Type of FU issued
system.cpu0.iq.FU_type_0::FloatMisc                 4      0.00%     56.32% # Type of FU issued
system.cpu0.iq.FU_type_0::FloatSqrt                 0      0.00%     56.32% # Type of FU issued
system.cpu0.iq.FU_type_0::SimdAdd                   0      0.00%     56.32% # Type of FU issued
system.cpu0.iq.FU_type_0::SimdAddAcc                0      0.00%     56.32% # Type of FU issued
system.cpu0.iq.FU_type_0::SimdAlu                   0      0.00%     56.32% # Type of FU issued
system.cpu0.iq.FU_type_0::SimdCmp                   0      0.00%     56.32% # Type of FU issued
system.cpu0.iq.FU_type_0::SimdCvt                   0      0.00%     56.32% # Type of FU issued
system.cpu0.iq.FU_type_0::SimdMisc                  0      0.00%     56.32% # Type of FU issued
system.cpu0.iq.FU_type_0::SimdMult                  0      0.00%     56.32% # Type of FU issued
system.cpu0.iq.FU_type_0::SimdMultAcc               0      0.00%     56.32% # Type of FU issued
system.cpu0.iq.FU_type_0::SimdShift                 0      0.00%     56.32% # Type of FU issued
system.cpu0.iq.FU_type_0::SimdShiftAcc              0      0.00%     56.32% # Type of FU issued
system.cpu0.iq.FU_type_0::SimdDiv                   0      0.00%     56.32% # Type of FU issued
system.cpu0.iq.FU_type_0::SimdSqrt                  0      0.00%     56.32% # Type of FU issued
system.cpu0.iq.FU_type_0::SimdFloatAdd              0      0.00%     56.32% # Type of FU issued
system.cpu0.iq.FU_type_0::SimdFloatAlu              0      0.00%     56.32% # Type of FU issued
system.cpu0.iq.FU_type_0::SimdFloatCmp              0      0.00%     56.32% # Type of FU issued
system.cpu0.iq.FU_type_0::SimdFloatCvt              0      0.00%     56.32% # Type of FU issued
system.cpu0.iq.FU_type_0::SimdFloatDiv              0      0.00%     56.32% # Type of FU issued
system.cpu0.iq.FU_type_0::SimdFloatMisc             0      0.00%     56.32% # Type of FU issued
system.cpu0.iq.FU_type_0::SimdFloatMult             0      0.00%     56.32% # Type of FU issued
system.cpu0.iq.FU_type_0::SimdFloatMultAcc            0      0.00%     56.32% # Type of FU issued
system.cpu0.iq.FU_type_0::SimdFloatSqrt             0      0.00%     56.32% # Type of FU issued
system.cpu0.iq.FU_type_0::SimdReduceAdd             0      0.00%     56.32% # Type of FU issued
system.cpu0.iq.FU_type_0::SimdReduceAlu             0      0.00%     56.32% # Type of FU issued
system.cpu0.iq.FU_type_0::SimdReduceCmp             0      0.00%     56.32% # Type of FU issued
system.cpu0.iq.FU_type_0::SimdFloatReduceAdd            0      0.00%     56.32% # Type of FU issued
system.cpu0.iq.FU_type_0::SimdFloatReduceCmp            0      0.00%     56.32% # Type of FU issued
system.cpu0.iq.FU_type_0::SimdAes                   0      0.00%     56.32% # Type of FU issued
system.cpu0.iq.FU_type_0::SimdAesMix                0      0.00%     56.32% # Type of FU issued
system.cpu0.iq.FU_type_0::SimdSha1Hash              0      0.00%     56.32% # Type of FU issued
system.cpu0.iq.FU_type_0::SimdSha1Hash2             0      0.00%     56.32% # Type of FU issued
system.cpu0.iq.FU_type_0::SimdSha256Hash            0      0.00%     56.32% # Type of FU issued
system.cpu0.iq.FU_type_0::SimdSha256Hash2            0      0.00%     56.32% # Type of FU issued
system.cpu0.iq.FU_type_0::SimdShaSigma2             0      0.00%     56.32% # Type of FU issued
system.cpu0.iq.FU_type_0::SimdShaSigma3             0      0.00%     56.32% # Type of FU issued
system.cpu0.iq.FU_type_0::SimdPredAlu               0      0.00%     56.32% # Type of FU issued
system.cpu0.iq.FU_type_0::MemRead           739727776     31.84%     88.16% # Type of FU issued
system.cpu0.iq.FU_type_0::MemWrite          275216593     11.84%    100.00% # Type of FU issued
system.cpu0.iq.FU_type_0::FloatMemRead             11      0.00%    100.00% # Type of FU issued
system.cpu0.iq.FU_type_0::FloatMemWrite            20      0.00%    100.00% # Type of FU issued
system.cpu0.iq.FU_type_0::IprAccess                 0      0.00%    100.00% # Type of FU issued
system.cpu0.iq.FU_type_0::InstPrefetch              0      0.00%    100.00% # Type of FU issued
system.cpu0.iq.FU_type_0::total            2323601974                       # Type of FU issued
system.cpu0.iq.fp_alu_accesses                     57                       # Number of floating point alu accesses
system.cpu0.iq.fp_inst_queue_reads                110                       # Number of floating instruction queue reads
system.cpu0.iq.fp_inst_queue_wakeup_accesses           52                       # Number of floating instruction queue wakeup accesses
system.cpu0.iq.fp_inst_queue_writes                90                       # Number of floating instruction queue writes
system.cpu0.iq.fu_busy_cnt                    4793829                       # FU busy when requested
system.cpu0.iq.fu_busy_rate                  0.002063                       # FU busy rate (busy events/executed inst)
system.cpu0.iq.fu_full::No_OpClass                  0      0.00%      0.00% # attempts to use FU when none available
system.cpu0.iq.fu_full::IntAlu                 778388     16.24%     16.24% # attempts to use FU when none available
system.cpu0.iq.fu_full::IntMult                    50      0.00%     16.24% # attempts to use FU when none available
system.cpu0.iq.fu_full::IntDiv                      0      0.00%     16.24% # attempts to use FU when none available
system.cpu0.iq.fu_full::FloatAdd                    0      0.00%     16.24% # attempts to use FU when none available
system.cpu0.iq.fu_full::FloatCmp                    0      0.00%     16.24% # attempts to use FU when none available
system.cpu0.iq.fu_full::FloatCvt                    0      0.00%     16.24% # attempts to use FU when none available
system.cpu0.iq.fu_full::FloatMult                   0      0.00%     16.24% # attempts to use FU when none available
system.cpu0.iq.fu_full::FloatMultAcc                0      0.00%     16.24% # attempts to use FU when none available
system.cpu0.iq.fu_full::FloatDiv                    0      0.00%     16.24% # attempts to use FU when none available
system.cpu0.iq.fu_full::FloatMisc                   0      0.00%     16.24% # attempts to use FU when none available
system.cpu0.iq.fu_full::FloatSqrt                   0      0.00%     16.24% # attempts to use FU when none available
system.cpu0.iq.fu_full::SimdAdd                     0      0.00%     16.24% # attempts to use FU when none available
system.cpu0.iq.fu_full::SimdAddAcc                  0      0.00%     16.24% # attempts to use FU when none available
system.cpu0.iq.fu_full::SimdAlu                     0      0.00%     16.24% # attempts to use FU when none available
system.cpu0.iq.fu_full::SimdCmp                     0      0.00%     16.24% # attempts to use FU when none available
system.cpu0.iq.fu_full::SimdCvt                     0      0.00%     16.24% # attempts to use FU when none available
system.cpu0.iq.fu_full::SimdMisc                    0      0.00%     16.24% # attempts to use FU when none available
system.cpu0.iq.fu_full::SimdMult                    0      0.00%     16.24% # attempts to use FU when none available
system.cpu0.iq.fu_full::SimdMultAcc                 0      0.00%     16.24% # attempts to use FU when none available
system.cpu0.iq.fu_full::SimdShift                   0      0.00%     16.24% # attempts to use FU when none available
system.cpu0.iq.fu_full::SimdShiftAcc                0      0.00%     16.24% # attempts to use FU when none available
system.cpu0.iq.fu_full::SimdDiv                     0      0.00%     16.24% # attempts to use FU when none available
system.cpu0.iq.fu_full::SimdSqrt                    0      0.00%     16.24% # attempts to use FU when none available
system.cpu0.iq.fu_full::SimdFloatAdd                0      0.00%     16.24% # attempts to use FU when none available
system.cpu0.iq.fu_full::SimdFloatAlu                0      0.00%     16.24% # attempts to use FU when none available
system.cpu0.iq.fu_full::SimdFloatCmp                0      0.00%     16.24% # attempts to use FU when none available
system.cpu0.iq.fu_full::SimdFloatCvt                0      0.00%     16.24% # attempts to use FU when none available
system.cpu0.iq.fu_full::SimdFloatDiv                0      0.00%     16.24% # attempts to use FU when none available
system.cpu0.iq.fu_full::SimdFloatMisc               0      0.00%     16.24% # attempts to use FU when none available
system.cpu0.iq.fu_full::SimdFloatMult               0      0.00%     16.24% # attempts to use FU when none available
system.cpu0.iq.fu_full::SimdFloatMultAcc            0      0.00%     16.24% # attempts to use FU when none available
system.cpu0.iq.fu_full::SimdFloatSqrt               0      0.00%     16.24% # attempts to use FU when none available
system.cpu0.iq.fu_full::SimdReduceAdd               0      0.00%     16.24% # attempts to use FU when none available
system.cpu0.iq.fu_full::SimdReduceAlu               0      0.00%     16.24% # attempts to use FU when none available
system.cpu0.iq.fu_full::SimdReduceCmp               0      0.00%     16.24% # attempts to use FU when none available
system.cpu0.iq.fu_full::SimdFloatReduceAdd            0      0.00%     16.24% # attempts to use FU when none available
system.cpu0.iq.fu_full::SimdFloatReduceCmp            0      0.00%     16.24% # attempts to use FU when none available
system.cpu0.iq.fu_full::SimdAes                     0      0.00%     16.24% # attempts to use FU when none available
system.cpu0.iq.fu_full::SimdAesMix                  0      0.00%     16.24% # attempts to use FU when none available
system.cpu0.iq.fu_full::SimdSha1Hash                0      0.00%     16.24% # attempts to use FU when none available
system.cpu0.iq.fu_full::SimdSha1Hash2               0      0.00%     16.24% # attempts to use FU when none available
system.cpu0.iq.fu_full::SimdSha256Hash              0      0.00%     16.24% # attempts to use FU when none available
system.cpu0.iq.fu_full::SimdSha256Hash2             0      0.00%     16.24% # attempts to use FU when none available
system.cpu0.iq.fu_full::SimdShaSigma2               0      0.00%     16.24% # attempts to use FU when none available
system.cpu0.iq.fu_full::SimdShaSigma3               0      0.00%     16.24% # attempts to use FU when none available
system.cpu0.iq.fu_full::SimdPredAlu                 0      0.00%     16.24% # attempts to use FU when none available
system.cpu0.iq.fu_full::MemRead               3391517     70.75%     86.99% # attempts to use FU when none available
system.cpu0.iq.fu_full::MemWrite               623870     13.01%    100.00% # attempts to use FU when none available
system.cpu0.iq.fu_full::FloatMemRead                0      0.00%    100.00% # attempts to use FU when none available
system.cpu0.iq.fu_full::FloatMemWrite               4      0.00%    100.00% # attempts to use FU when none available
system.cpu0.iq.fu_full::IprAccess                   0      0.00%    100.00% # attempts to use FU when none available
system.cpu0.iq.fu_full::InstPrefetch                0      0.00%    100.00% # attempts to use FU when none available
system.cpu0.iq.int_alu_accesses            2320783956                       # Number of integer alu accesses
system.cpu0.iq.int_inst_queue_reads        8320634468                       # Number of integer instruction queue reads
system.cpu0.iq.int_inst_queue_wakeup_accesses   2296864847                       # Number of integer instruction queue wakeup accesses
system.cpu0.iq.int_inst_queue_writes       2424765056                       # Number of integer instruction queue writes
system.cpu0.iq.iqInstsAdded                2315427058                       # Number of instructions added to the IQ (excludes non-spec)
system.cpu0.iq.iqInstsIssued               2323601974                       # Number of instructions issued
system.cpu0.iq.iqNonSpecInstsAdded           11419901                       # Number of non-speculative instructions added to the IQ
system.cpu0.iq.iqSquashedInstsExamined       97903166                       # Number of squashed instructions iterated over during squash; mainly for profiling
system.cpu0.iq.iqSquashedInstsIssued           290990                       # Number of squashed instructions issued
system.cpu0.iq.iqSquashedNonSpecRemoved           402                       # Number of squashed non-spec instructions that were removed
system.cpu0.iq.iqSquashedOperandsExamined     30467700                       # Number of squashed operands that are examined and possibly removed from graph
system.cpu0.iq.issued_per_cycle::samples   3668345811                       # Number of insts issued each cycle
system.cpu0.iq.issued_per_cycle::mean        0.633420                       # Number of insts issued each cycle
system.cpu0.iq.issued_per_cycle::stdev       0.858118                       # Number of insts issued each cycle
system.cpu0.iq.issued_per_cycle::underflows            0      0.00%      0.00% # Number of insts issued each cycle
system.cpu0.iq.issued_per_cycle::0         2051626225     55.93%     55.93% # Number of insts issued each cycle
system.cpu0.iq.issued_per_cycle::1         1088329357     29.67%     85.60% # Number of insts issued each cycle
system.cpu0.iq.issued_per_cycle::2          377609220     10.29%     95.89% # Number of insts issued each cycle
system.cpu0.iq.issued_per_cycle::3          130176409      3.55%     99.44% # Number of insts issued each cycle
system.cpu0.iq.issued_per_cycle::4           16725365      0.46%     99.89% # Number of insts issued each cycle
system.cpu0.iq.issued_per_cycle::5            1647260      0.04%     99.94% # Number of insts issued each cycle
system.cpu0.iq.issued_per_cycle::6            1550232      0.04%     99.98% # Number of insts issued each cycle
system.cpu0.iq.issued_per_cycle::7             368146      0.01%     99.99% # Number of insts issued each cycle
system.cpu0.iq.issued_per_cycle::8             313597      0.01%    100.00% # Number of insts issued each cycle
system.cpu0.iq.issued_per_cycle::overflows            0      0.00%    100.00% # Number of insts issued each cycle
system.cpu0.iq.issued_per_cycle::min_value            0                       # Number of insts issued each cycle
system.cpu0.iq.issued_per_cycle::max_value            8                       # Number of insts issued each cycle
system.cpu0.iq.issued_per_cycle::total     3668345811                       # Number of insts issued each cycle
system.cpu0.iq.rate                          0.591177                       # Inst issue rate
system.cpu0.iq.vec_alu_accesses                     0                       # Number of vector alu accesses
system.cpu0.iq.vec_inst_queue_reads                 0                       # Number of vector instruction queue reads
system.cpu0.iq.vec_inst_queue_wakeup_accesses            0                       # Number of vector instruction queue wakeup accesses
system.cpu0.iq.vec_inst_queue_writes                0                       # Number of vector instruction queue writes
system.cpu0.itb.accesses                            0                       # DTB accesses
system.cpu0.itb.hits                                0                       # DTB hits
system.cpu0.itb.misses                              0                       # DTB misses
system.cpu0.itb.read_accesses                       0                       # DTB read accesses
system.cpu0.itb.read_hits                           0                       # DTB read hits
system.cpu0.itb.read_misses                         0                       # DTB read misses
system.cpu0.itb.write_accesses                      0                       # DTB write accesses
system.cpu0.itb.write_hits                          0                       # DTB write hits
system.cpu0.itb.write_misses                        0                       # DTB write misses
system.cpu0.memDep0.conflictingLoads         35692719                       # Number of conflicting loads.
system.cpu0.memDep0.conflictingStores         8119334                       # Number of conflicting stores.
system.cpu0.memDep0.insertedLoads           730149798                       # Number of loads inserted to the mem dependence unit.
system.cpu0.memDep0.insertedStores          280576544                       # Number of stores inserted to the mem dependence unit.
system.cpu0.misc_regfile_reads                   2893                       # number of misc regfile reads
system.cpu0.misc_regfile_writes                    22                       # number of misc regfile writes
system.cpu0.numCycles                      3930468372                       # number of cpu cycles simulated
system.cpu0.numWorkItemsCompleted                   0                       # number of work items this cpu completed
system.cpu0.numWorkItemsStarted                     0                       # number of work items this cpu started
system.cpu0.quiesceCycles                     6348044                       # Total number of cycles that CPU has spent quiesced or waiting for an interrupt
system.cpu0.rename.BlockCycles              624726112                       # Number of cycles rename is blocking
system.cpu0.rename.CommittedMaps           1421550978                       # Number of HB maps that are committed
system.cpu0.rename.IQFullEvents              25766381                       # Number of times rename has blocked due to IQ full
system.cpu0.rename.IdleCycles              1340683693                       # Number of cycles rename is idle
system.cpu0.rename.LQFullEvents              23439610                       # Number of times rename has blocked due to LQ full
system.cpu0.rename.ROBFullEvents                78415                       # Number of times rename has blocked due to ROB full
system.cpu0.rename.RenameLookups           2883087571                       # Number of register rename lookups that rename has made
system.cpu0.rename.RenamedInsts            2354350638                       # Number of instructions processed by rename
system.cpu0.rename.RenamedOperands         1511849517                       # Number of destination operands rename has renamed
system.cpu0.rename.RunCycles               1603241231                       # Number of cycles rename is running
system.cpu0.rename.SQFullEvents              32459121                       # Number of times rename has blocked due to SQ full
system.cpu0.rename.SquashCycles              17433909                       # Number of cycles rename is squashing
system.cpu0.rename.UnblockCycles             82031643                       # Number of cycles rename is unblocking
system.cpu0.rename.UndoneMaps                90298535                       # Number of HB maps that are undone due to squashing
system.cpu0.rename.fp_rename_lookups               44                       # Number of floating rename lookups
system.cpu0.rename.int_rename_lookups      2883087527                       # Number of integer rename lookups
system.cpu0.rename.serializeStallCycles        229223                       # count of cycles rename stalled for serializing inst
system.cpu0.rename.serializingInsts              8823                       # count of serializing insts renamed
system.cpu0.rename.skidInsts                 53257508                       # count of insts added to the skid buffer
system.cpu0.rename.tempSerializingInsts          8815                       # count of temporary serializing insts renamed
system.cpu0.rob.rob_reads                  5909081802                       # The number of ROB reads
system.cpu0.rob.rob_writes                 4679537084                       # The number of ROB writes
system.cpu0.timesIdled                       40432009                       # Number of times that the entire CPU went into an idle state and unscheduled itself
system.cpu0.workload.numSyscalls                 2860                       # Number of system calls
system.cpu1.branchPred.BTBCorrect                   0                       # Number of correct BTB predictions (this stat may not work properly.
system.cpu1.branchPred.BTBHitPct            82.172797                       # BTB Hit Percentage
system.cpu1.branchPred.BTBHits               19567938                       # Number of BTB hits
system.cpu1.branchPred.BTBLookups            23813158                       # Number of BTB lookups
system.cpu1.branchPred.RASInCorrect                 0                       # Number of incorrect RAS predictions.
system.cpu1.branchPred.condIncorrect          2267277                       # Number of conditional branches incorrect
system.cpu1.branchPred.condPredicted         36687977                       # Number of conditional branches predicted
system.cpu1.branchPred.indirectHits            924618                       # Number of indirect target hits.
system.cpu1.branchPred.indirectLookups         935759                       # Number of indirect predictor lookups.
system.cpu1.branchPred.indirectMisses           11141                       # Number of indirect misses.
system.cpu1.branchPred.lookups               40073101                       # Number of BP lookups
system.cpu1.branchPred.usedRAS                      0                       # Number of times the RAS was used to get a target.
system.cpu1.branchPredindirectMispredicted        47540                       # Number of mispredicted indirect branches.
system.cpu1.commit.amos                       3801576                       # Number of atomic instructions committed
system.cpu1.commit.branchMispredicts          1695945                       # The number of times a branch was mispredicted
system.cpu1.commit.branches                  29521128                       # Number of branches committed
system.cpu1.commit.bw_lim_events              2830976                       # number cycles where commit BW limit reached
system.cpu1.commit.commitNonSpecStalls       11405400                       # The number of times commit has been forced to stall to communicate backwards
system.cpu1.commit.commitSquashedInsts       24217106                       # The number of squashed insts skipped by commit
system.cpu1.commit.committedInsts           130087371                       # Number of instructions committed
system.cpu1.commit.committedOps             133889126                       # Number of ops (including micro ops) committed
system.cpu1.commit.committed_per_cycle::samples    682740708                       # Number of insts commited each cycle
system.cpu1.commit.committed_per_cycle::mean     0.196105                       # Number of insts commited each cycle
system.cpu1.commit.committed_per_cycle::stdev     0.860046                       # Number of insts commited each cycle
system.cpu1.commit.committed_per_cycle::underflows            0      0.00%      0.00% # Number of insts commited each cycle
system.cpu1.commit.committed_per_cycle::0    626107544     91.71%     91.71% # Number of insts commited each cycle
system.cpu1.commit.committed_per_cycle::1     28310707      4.15%     95.85% # Number of insts commited each cycle
system.cpu1.commit.committed_per_cycle::2      9570660      1.40%     97.25% # Number of insts commited each cycle
system.cpu1.commit.committed_per_cycle::3      9060990      1.33%     98.58% # Number of insts commited each cycle
system.cpu1.commit.committed_per_cycle::4      2090525      0.31%     98.89% # Number of insts commited each cycle
system.cpu1.commit.committed_per_cycle::5       814359      0.12%     99.01% # Number of insts commited each cycle
system.cpu1.commit.committed_per_cycle::6      3512203      0.51%     99.52% # Number of insts commited each cycle
system.cpu1.commit.committed_per_cycle::7       442744      0.06%     99.59% # Number of insts commited each cycle
system.cpu1.commit.committed_per_cycle::8      2830976      0.41%    100.00% # Number of insts commited each cycle
system.cpu1.commit.committed_per_cycle::overflows            0      0.00%    100.00% # Number of insts commited each cycle
system.cpu1.commit.committed_per_cycle::min_value            0                       # Number of insts commited each cycle
system.cpu1.commit.committed_per_cycle::max_value            8                       # Number of insts commited each cycle
system.cpu1.commit.committed_per_cycle::total    682740708                       # Number of insts commited each cycle
system.cpu1.commit.fp_insts                        12                       # Number of committed floating point instructions.
system.cpu1.commit.function_calls             1457653                       # Number of function calls committed.
system.cpu1.commit.int_insts                125293017                       # Number of committed integer instructions.
system.cpu1.commit.loads                     36893179                       # Number of loads committed
system.cpu1.commit.membars                    7603267                       # Number of memory barriers committed
system.cpu1.commit.op_class_0::No_OpClass      7603267      5.68%      5.68% # Class of committed instruction
system.cpu1.commit.op_class_0::IntAlu        77465445     57.86%     63.54% # Class of committed instruction
system.cpu1.commit.op_class_0::IntMult             44      0.00%     63.54% # Class of committed instruction
system.cpu1.commit.op_class_0::IntDiv              88      0.00%     63.54% # Class of committed instruction
system.cpu1.commit.op_class_0::FloatAdd             0      0.00%     63.54% # Class of committed instruction
system.cpu1.commit.op_class_0::FloatCmp             0      0.00%     63.54% # Class of committed instruction
system.cpu1.commit.op_class_0::FloatCvt             0      0.00%     63.54% # Class of committed instruction
system.cpu1.commit.op_class_0::FloatMult            0      0.00%     63.54% # Class of committed instruction
system.cpu1.commit.op_class_0::FloatMultAcc            0      0.00%     63.54% # Class of committed instruction
system.cpu1.commit.op_class_0::FloatDiv             0      0.00%     63.54% # Class of committed instruction
system.cpu1.commit.op_class_0::FloatMisc            0      0.00%     63.54% # Class of committed instruction
system.cpu1.commit.op_class_0::FloatSqrt            0      0.00%     63.54% # Class of committed instruction
system.cpu1.commit.op_class_0::SimdAdd              0      0.00%     63.54% # Class of committed instruction
system.cpu1.commit.op_class_0::SimdAddAcc            0      0.00%     63.54% # Class of committed instruction
system.cpu1.commit.op_class_0::SimdAlu              0      0.00%     63.54% # Class of committed instruction
system.cpu1.commit.op_class_0::SimdCmp              0      0.00%     63.54% # Class of committed instruction
system.cpu1.commit.op_class_0::SimdCvt              0      0.00%     63.54% # Class of committed instruction
system.cpu1.commit.op_class_0::SimdMisc             0      0.00%     63.54% # Class of committed instruction
system.cpu1.commit.op_class_0::SimdMult             0      0.00%     63.54% # Class of committed instruction
system.cpu1.commit.op_class_0::SimdMultAcc            0      0.00%     63.54% # Class of committed instruction
system.cpu1.commit.op_class_0::SimdShift            0      0.00%     63.54% # Class of committed instruction
system.cpu1.commit.op_class_0::SimdShiftAcc            0      0.00%     63.54% # Class of committed instruction
system.cpu1.commit.op_class_0::SimdDiv              0      0.00%     63.54% # Class of committed instruction
system.cpu1.commit.op_class_0::SimdSqrt             0      0.00%     63.54% # Class of committed instruction
system.cpu1.commit.op_class_0::SimdFloatAdd            0      0.00%     63.54% # Class of committed instruction
system.cpu1.commit.op_class_0::SimdFloatAlu            0      0.00%     63.54% # Class of committed instruction
system.cpu1.commit.op_class_0::SimdFloatCmp            0      0.00%     63.54% # Class of committed instruction
system.cpu1.commit.op_class_0::SimdFloatCvt            0      0.00%     63.54% # Class of committed instruction
system.cpu1.commit.op_class_0::SimdFloatDiv            0      0.00%     63.54% # Class of committed instruction
system.cpu1.commit.op_class_0::SimdFloatMisc            0      0.00%     63.54% # Class of committed instruction
system.cpu1.commit.op_class_0::SimdFloatMult            0      0.00%     63.54% # Class of committed instruction
system.cpu1.commit.op_class_0::SimdFloatMultAcc            0      0.00%     63.54% # Class of committed instruction
system.cpu1.commit.op_class_0::SimdFloatSqrt            0      0.00%     63.54% # Class of committed instruction
system.cpu1.commit.op_class_0::SimdReduceAdd            0      0.00%     63.54% # Class of committed instruction
system.cpu1.commit.op_class_0::SimdReduceAlu            0      0.00%     63.54% # Class of committed instruction
system.cpu1.commit.op_class_0::SimdReduceCmp            0      0.00%     63.54% # Class of committed instruction
system.cpu1.commit.op_class_0::SimdFloatReduceAdd            0      0.00%     63.54% # Class of committed instruction
system.cpu1.commit.op_class_0::SimdFloatReduceCmp            0      0.00%     63.54% # Class of committed instruction
system.cpu1.commit.op_class_0::SimdAes              0      0.00%     63.54% # Class of committed instruction
system.cpu1.commit.op_class_0::SimdAesMix            0      0.00%     63.54% # Class of committed instruction
system.cpu1.commit.op_class_0::SimdSha1Hash            0      0.00%     63.54% # Class of committed instruction
system.cpu1.commit.op_class_0::SimdSha1Hash2            0      0.00%     63.54% # Class of committed instruction
system.cpu1.commit.op_class_0::SimdSha256Hash            0      0.00%     63.54% # Class of committed instruction
system.cpu1.commit.op_class_0::SimdSha256Hash2            0      0.00%     63.54% # Class of committed instruction
system.cpu1.commit.op_class_0::SimdShaSigma2            0      0.00%     63.54% # Class of committed instruction
system.cpu1.commit.op_class_0::SimdShaSigma3            0      0.00%     63.54% # Class of committed instruction
system.cpu1.commit.op_class_0::SimdPredAlu            0      0.00%     63.54% # Class of committed instruction
system.cpu1.commit.op_class_0::MemRead       40694755     30.39%     93.93% # Class of committed instruction
system.cpu1.commit.op_class_0::MemWrite       8125515      6.07%    100.00% # Class of committed instruction
system.cpu1.commit.op_class_0::FloatMemRead            0      0.00%    100.00% # Class of committed instruction
system.cpu1.commit.op_class_0::FloatMemWrite           12      0.00%    100.00% # Class of committed instruction
system.cpu1.commit.op_class_0::IprAccess            0      0.00%    100.00% # Class of committed instruction
system.cpu1.commit.op_class_0::InstPrefetch            0      0.00%    100.00% # Class of committed instruction
system.cpu1.commit.op_class_0::total        133889126                       # Class of committed instruction
system.cpu1.commit.refs                      48820282                       # Number of memory references committed
system.cpu1.commit.swp_count                        0                       # Number of s/w prefetches committed
system.cpu1.commit.vec_insts                        0                       # Number of committed Vector instructions.
system.cpu1.committedInsts                  130087371                       # Number of Instructions Simulated
system.cpu1.committedOps                    133889126                       # Number of Ops (including micro ops) Simulated
system.cpu1.cpi                              5.303444                       # CPI: Cycles Per Instruction
system.cpu1.cpi_total                        5.303444                       # CPI: Total CPI of All Threads
system.cpu1.decode.BlockedCycles            591670387                       # Number of cycles decode is blocked
system.cpu1.decode.BranchMispred               589291                       # Number of times decode detected a branch misprediction
system.cpu1.decode.BranchResolved            17979530                       # Number of times decode resolved a branch
system.cpu1.decode.DecodedInsts             166213050                       # Number of instructions handled by decode
system.cpu1.decode.IdleCycles                25464331                       # Number of cycles decode is idle
system.cpu1.decode.RunCycles                 59313102                       # Number of cycles decode is running
system.cpu1.decode.SquashCycles               1697095                       # Number of cycles decode is squashing
system.cpu1.decode.SquashedInsts              1267073                       # Number of squashed instructions handled by decode
system.cpu1.decode.UnblockCycles              8800705                       # Number of cycles decode is unblocking
system.cpu1.dtb.accesses                            0                       # DTB accesses
system.cpu1.dtb.hits                                0                       # DTB hits
system.cpu1.dtb.misses                              0                       # DTB misses
system.cpu1.dtb.read_accesses                       0                       # DTB read accesses
system.cpu1.dtb.read_hits                           0                       # DTB read hits
system.cpu1.dtb.read_misses                         0                       # DTB read misses
system.cpu1.dtb.write_accesses                      0                       # DTB write accesses
system.cpu1.dtb.write_hits                          0                       # DTB write hits
system.cpu1.dtb.write_misses                        0                       # DTB write misses
system.cpu1.fetch.Branches                   40073101                       # Number of branches that fetch encountered
system.cpu1.fetch.CacheLines                 26561981                       # Number of cache lines fetched
system.cpu1.fetch.Cycles                    655715698                       # Number of cycles fetch has run and was not squashing or blocked
system.cpu1.fetch.IcacheSquashes               356239                       # Number of outstanding Icache misses that were squashed
system.cpu1.fetch.Insts                     182498372                       # Number of instructions fetch has processed
system.cpu1.fetch.MiscStallCycles                   1                       # Number of cycles fetch has spent waiting on interrupts, or bad addresses, or out of MSHRs
system.cpu1.fetch.SquashCycles                4536854                       # Number of cycles fetch has spent squashing
system.cpu1.fetch.branchRate                 0.058084                       # Number of branch fetches per cycle
system.cpu1.fetch.icacheStallCycles          28961494                       # Number of cycles fetch is stalled on an Icache miss
system.cpu1.fetch.predictedBranches          20492556                       # Number of branches that fetch has predicted taken
system.cpu1.fetch.rate                       0.264524                       # Number of inst fetches per cycle
system.cpu1.fetch.rateDist::samples         686945620                       # Number of instructions fetched each cycle (Total)
system.cpu1.fetch.rateDist::mean             0.273571                       # Number of instructions fetched each cycle (Total)
system.cpu1.fetch.rateDist::stdev            0.733687                       # Number of instructions fetched each cycle (Total)
system.cpu1.fetch.rateDist::underflows              0      0.00%      0.00% # Number of instructions fetched each cycle (Total)
system.cpu1.fetch.rateDist::0               574266546     83.60%     83.60% # Number of instructions fetched each cycle (Total)
system.cpu1.fetch.rateDist::1                65366927      9.52%     93.11% # Number of instructions fetched each cycle (Total)
system.cpu1.fetch.rateDist::2                28875799      4.20%     97.32% # Number of instructions fetched each cycle (Total)
system.cpu1.fetch.rateDist::3                11858840      1.73%     99.04% # Number of instructions fetched each cycle (Total)
system.cpu1.fetch.rateDist::4                 4675378      0.68%     99.72% # Number of instructions fetched each cycle (Total)
system.cpu1.fetch.rateDist::5                  881956      0.13%     99.85% # Number of instructions fetched each cycle (Total)
system.cpu1.fetch.rateDist::6                 1019767      0.15%    100.00% # Number of instructions fetched each cycle (Total)
system.cpu1.fetch.rateDist::7                      10      0.00%    100.00% # Number of instructions fetched each cycle (Total)
system.cpu1.fetch.rateDist::8                     397      0.00%    100.00% # Number of instructions fetched each cycle (Total)
system.cpu1.fetch.rateDist::overflows               0      0.00%    100.00% # Number of instructions fetched each cycle (Total)
system.cpu1.fetch.rateDist::min_value               0                       # Number of instructions fetched each cycle (Total)
system.cpu1.fetch.rateDist::max_value               8                       # Number of instructions fetched each cycle (Total)
system.cpu1.fetch.rateDist::total           686945620                       # Number of instructions fetched each cycle (Total)
system.cpu1.fp_regfile_reads                       12                       # number of floating regfile reads
system.cpu1.idleCycles                        2965471                       # Total number of cycles that the CPU has spent unscheduled due to idling
system.cpu1.iew.branchMispredicts             1801702                       # Number of branch mispredicts detected at execute
system.cpu1.iew.exec_branches                32425555                       # Number of branches executed
system.cpu1.iew.exec_nop                            0                       # number of nop insts executed
system.cpu1.iew.exec_rate                    0.210581                       # Inst execution rate
system.cpu1.iew.exec_refs                    51934073                       # number of memory reference insts executed
system.cpu1.iew.exec_stores                  12369607                       # Number of stores executed
system.cpu1.iew.exec_swp                            0                       # number of swp insts executed
system.cpu1.iew.iewBlockCycles              507940647                       # Number of cycles IEW is blocking
system.cpu1.iew.iewDispLoadInsts             43476263                       # Number of dispatched load instructions
system.cpu1.iew.iewDispNonSpecInsts           4437494                       # Number of dispatched non-speculative instructions
system.cpu1.iew.iewDispSquashedInsts          2010372                       # Number of squashed instructions skipped by dispatch
system.cpu1.iew.iewDispStoreInsts            14037035                       # Number of dispatched store instructions
system.cpu1.iew.iewDispatchedInsts          158092375                       # Number of instructions dispatched to IQ
system.cpu1.iew.iewExecLoadInsts             39564466                       # Number of load instructions executed
system.cpu1.iew.iewExecSquashedInsts          1402153                       # Number of squashed instructions skipped in execute
system.cpu1.iew.iewExecutedInsts            145281873                       # Number of executed instructions
system.cpu1.iew.iewIQFullEvents               3905446                       # Number of times the IQ has become full, causing a stall
system.cpu1.iew.iewIdleCycles                       0                       # Number of cycles IEW is idle
system.cpu1.iew.iewLSQFullEvents              4124325                       # Number of times the LSQ has become full, causing a stall
system.cpu1.iew.iewSquashCycles               1697095                       # Number of cycles IEW is squashing
system.cpu1.iew.iewUnblockCycles             12347334                       # Number of cycles IEW is unblocking
system.cpu1.iew.lsq.thread0.blockedLoads            0                       # Number of blocked loads due to partial load-store forwarding
system.cpu1.iew.lsq.thread0.cacheBlocked        60110                       # Number of times an access to memory failed due to the cache being blocked
system.cpu1.iew.lsq.thread0.forwLoads         1081238                       # Number of loads that had data forwarded from stores
system.cpu1.iew.lsq.thread0.ignoredResponses        39792                       # Number of memory responses ignored because the instruction is squashed
system.cpu1.iew.lsq.thread0.invAddrLoads            0                       # Number of loads ignored due to an invalid address
system.cpu1.iew.lsq.thread0.invAddrSwpfs            0                       # Number of software prefetches ignored due to an invalid address
system.cpu1.iew.lsq.thread0.memOrderViolation         1350                       # Number of memory ordering violations
system.cpu1.iew.lsq.thread0.rescheduledLoads         4109                       # Number of loads that were rescheduled
system.cpu1.iew.lsq.thread0.squashedLoads      6583084                       # Number of loads squashed
system.cpu1.iew.lsq.thread0.squashedStores      2109932                       # Number of stores squashed
system.cpu1.iew.memOrderViolationEvents          1350                       # Number of memory order violations
system.cpu1.iew.predictedNotTakenIncorrect       499427                       # Number of branches that were predicted not taken incorrectly
system.cpu1.iew.predictedTakenIncorrect       1302275                       # Number of branches that were predicted taken incorrectly
system.cpu1.iew.wb_consumers                 82720919                       # num instructions consuming a value
system.cpu1.iew.wb_count                    144165759                       # cumulative count of insts written-back
system.cpu1.iew.wb_fanout                    0.836378                       # average fanout of values written-back
system.cpu1.iew.wb_producers                 69185936                       # num instructions producing a value
system.cpu1.iew.wb_rate                      0.208963                       # insts written-back per cycle
system.cpu1.iew.wb_sent                     144217654                       # cumulative count of insts sent to commit
system.cpu1.int_regfile_reads               180977740                       # number of integer regfile reads
system.cpu1.int_regfile_writes               96390963                       # number of integer regfile writes
system.cpu1.ipc                              0.188557                       # IPC: Instructions Per Cycle
system.cpu1.ipc_total                        0.188557                       # IPC: Total IPC of All Threads
system.cpu1.iq.FU_type_0::No_OpClass          7603374      5.18%      5.18% # Type of FU issued
system.cpu1.iq.FU_type_0::IntAlu             86792674     59.17%     64.35% # Type of FU issued
system.cpu1.iq.FU_type_0::IntMult                  45      0.00%     64.35% # Type of FU issued
system.cpu1.iq.FU_type_0::IntDiv                   88      0.00%     64.35% # Type of FU issued
system.cpu1.iq.FU_type_0::FloatAdd                  0      0.00%     64.35% # Type of FU issued
system.cpu1.iq.FU_type_0::FloatCmp                  0      0.00%     64.35% # Type of FU issued
system.cpu1.iq.FU_type_0::FloatCvt                  0      0.00%     64.35% # Type of FU issued
system.cpu1.iq.FU_type_0::FloatMult                 0      0.00%     64.35% # Type of FU issued
system.cpu1.iq.FU_type_0::FloatMultAcc              0      0.00%     64.35% # Type of FU issued
system.cpu1.iq.FU_type_0::FloatDiv                  0      0.00%     64.35% # Type of FU issued
system.cpu1.iq.FU_type_0::FloatMisc                 0      0.00%     64.35% # Type of FU issued
system.cpu1.iq.FU_type_0::FloatSqrt                 0      0.00%     64.35% # Type of FU issued
system.cpu1.iq.FU_type_0::SimdAdd                   0      0.00%     64.35% # Type of FU issued
system.cpu1.iq.FU_type_0::SimdAddAcc                0      0.00%     64.35% # Type of FU issued
system.cpu1.iq.FU_type_0::SimdAlu                   0      0.00%     64.35% # Type of FU issued
system.cpu1.iq.FU_type_0::SimdCmp                   0      0.00%     64.35% # Type of FU issued
system.cpu1.iq.FU_type_0::SimdCvt                   0      0.00%     64.35% # Type of FU issued
system.cpu1.iq.FU_type_0::SimdMisc                  0      0.00%     64.35% # Type of FU issued
system.cpu1.iq.FU_type_0::SimdMult                  0      0.00%     64.35% # Type of FU issued
system.cpu1.iq.FU_type_0::SimdMultAcc               0      0.00%     64.35% # Type of FU issued
system.cpu1.iq.FU_type_0::SimdShift                 0      0.00%     64.35% # Type of FU issued
system.cpu1.iq.FU_type_0::SimdShiftAcc              0      0.00%     64.35% # Type of FU issued
system.cpu1.iq.FU_type_0::SimdDiv                   0      0.00%     64.35% # Type of FU issued
system.cpu1.iq.FU_type_0::SimdSqrt                  0      0.00%     64.35% # Type of FU issued
system.cpu1.iq.FU_type_0::SimdFloatAdd              0      0.00%     64.35% # Type of FU issued
system.cpu1.iq.FU_type_0::SimdFloatAlu              0      0.00%     64.35% # Type of FU issued
system.cpu1.iq.FU_type_0::SimdFloatCmp              0      0.00%     64.35% # Type of FU issued
system.cpu1.iq.FU_type_0::SimdFloatCvt              0      0.00%     64.35% # Type of FU issued
system.cpu1.iq.FU_type_0::SimdFloatDiv              0      0.00%     64.35% # Type of FU issued
system.cpu1.iq.FU_type_0::SimdFloatMisc             0      0.00%     64.35% # Type of FU issued
system.cpu1.iq.FU_type_0::SimdFloatMult             0      0.00%     64.35% # Type of FU issued
system.cpu1.iq.FU_type_0::SimdFloatMultAcc            0      0.00%     64.35% # Type of FU issued
system.cpu1.iq.FU_type_0::SimdFloatSqrt             0      0.00%     64.35% # Type of FU issued
system.cpu1.iq.FU_type_0::SimdReduceAdd             0      0.00%     64.35% # Type of FU issued
system.cpu1.iq.FU_type_0::SimdReduceAlu             0      0.00%     64.35% # Type of FU issued
system.cpu1.iq.FU_type_0::SimdReduceCmp             0      0.00%     64.35% # Type of FU issued
system.cpu1.iq.FU_type_0::SimdFloatReduceAdd            0      0.00%     64.35% # Type of FU issued
system.cpu1.iq.FU_type_0::SimdFloatReduceCmp            0      0.00%     64.35% # Type of FU issued
system.cpu1.iq.FU_type_0::SimdAes                   0      0.00%     64.35% # Type of FU issued
system.cpu1.iq.FU_type_0::SimdAesMix                0      0.00%     64.35% # Type of FU issued
system.cpu1.iq.FU_type_0::SimdSha1Hash              0      0.00%     64.35% # Type of FU issued
system.cpu1.iq.FU_type_0::SimdSha1Hash2             0      0.00%     64.35% # Type of FU issued
system.cpu1.iq.FU_type_0::SimdSha256Hash            0      0.00%     64.35% # Type of FU issued
system.cpu1.iq.FU_type_0::SimdSha256Hash2            0      0.00%     64.35% # Type of FU issued
system.cpu1.iq.FU_type_0::SimdShaSigma2             0      0.00%     64.35% # Type of FU issued
system.cpu1.iq.FU_type_0::SimdShaSigma3             0      0.00%     64.35% # Type of FU issued
system.cpu1.iq.FU_type_0::SimdPredAlu               0      0.00%     64.35% # Type of FU issued
system.cpu1.iq.FU_type_0::MemRead            43668632     29.77%     94.12% # Type of FU issued
system.cpu1.iq.FU_type_0::MemWrite            8619201      5.88%    100.00% # Type of FU issued
system.cpu1.iq.FU_type_0::FloatMemRead              0      0.00%    100.00% # Type of FU issued
system.cpu1.iq.FU_type_0::FloatMemWrite            12      0.00%    100.00% # Type of FU issued
system.cpu1.iq.FU_type_0::IprAccess                 0      0.00%    100.00% # Type of FU issued
system.cpu1.iq.FU_type_0::InstPrefetch              0      0.00%    100.00% # Type of FU issued
system.cpu1.iq.FU_type_0::total             146684026                       # Type of FU issued
system.cpu1.iq.fp_alu_accesses                     16                       # Number of floating point alu accesses
system.cpu1.iq.fp_inst_queue_reads                 28                       # Number of floating instruction queue reads
system.cpu1.iq.fp_inst_queue_wakeup_accesses           12                       # Number of floating instruction queue wakeup accesses
system.cpu1.iq.fp_inst_queue_writes                12                       # Number of floating instruction queue writes
system.cpu1.iq.fu_busy_cnt                    4084833                       # FU busy when requested
system.cpu1.iq.fu_busy_rate                  0.027848                       # FU busy rate (busy events/executed inst)
system.cpu1.iq.fu_full::No_OpClass                  0      0.00%      0.00% # attempts to use FU when none available
system.cpu1.iq.fu_full::IntAlu                 628566     15.39%     15.39% # attempts to use FU when none available
system.cpu1.iq.fu_full::IntMult                     0      0.00%     15.39% # attempts to use FU when none available
system.cpu1.iq.fu_full::IntDiv                      0      0.00%     15.39% # attempts to use FU when none available
system.cpu1.iq.fu_full::FloatAdd                    0      0.00%     15.39% # attempts to use FU when none available
system.cpu1.iq.fu_full::FloatCmp                    0      0.00%     15.39% # attempts to use FU when none available
system.cpu1.iq.fu_full::FloatCvt                    0      0.00%     15.39% # attempts to use FU when none available
system.cpu1.iq.fu_full::FloatMult                   0      0.00%     15.39% # attempts to use FU when none available
system.cpu1.iq.fu_full::FloatMultAcc                0      0.00%     15.39% # attempts to use FU when none available
system.cpu1.iq.fu_full::FloatDiv                    0      0.00%     15.39% # attempts to use FU when none available
system.cpu1.iq.fu_full::FloatMisc                   0      0.00%     15.39% # attempts to use FU when none available
system.cpu1.iq.fu_full::FloatSqrt                   0      0.00%     15.39% # attempts to use FU when none available
system.cpu1.iq.fu_full::SimdAdd                     0      0.00%     15.39% # attempts to use FU when none available
system.cpu1.iq.fu_full::SimdAddAcc                  0      0.00%     15.39% # attempts to use FU when none available
system.cpu1.iq.fu_full::SimdAlu                     0      0.00%     15.39% # attempts to use FU when none available
system.cpu1.iq.fu_full::SimdCmp                     0      0.00%     15.39% # attempts to use FU when none available
system.cpu1.iq.fu_full::SimdCvt                     0      0.00%     15.39% # attempts to use FU when none available
system.cpu1.iq.fu_full::SimdMisc                    0      0.00%     15.39% # attempts to use FU when none available
system.cpu1.iq.fu_full::SimdMult                    0      0.00%     15.39% # attempts to use FU when none available
system.cpu1.iq.fu_full::SimdMultAcc                 0      0.00%     15.39% # attempts to use FU when none available
system.cpu1.iq.fu_full::SimdShift                   0      0.00%     15.39% # attempts to use FU when none available
system.cpu1.iq.fu_full::SimdShiftAcc                0      0.00%     15.39% # attempts to use FU when none available
system.cpu1.iq.fu_full::SimdDiv                     0      0.00%     15.39% # attempts to use FU when none available
system.cpu1.iq.fu_full::SimdSqrt                    0      0.00%     15.39% # attempts to use FU when none available
system.cpu1.iq.fu_full::SimdFloatAdd                0      0.00%     15.39% # attempts to use FU when none available
system.cpu1.iq.fu_full::SimdFloatAlu                0      0.00%     15.39% # attempts to use FU when none available
system.cpu1.iq.fu_full::SimdFloatCmp                0      0.00%     15.39% # attempts to use FU when none available
system.cpu1.iq.fu_full::SimdFloatCvt                0      0.00%     15.39% # attempts to use FU when none available
system.cpu1.iq.fu_full::SimdFloatDiv                0      0.00%     15.39% # attempts to use FU when none available
system.cpu1.iq.fu_full::SimdFloatMisc               0      0.00%     15.39% # attempts to use FU when none available
system.cpu1.iq.fu_full::SimdFloatMult               0      0.00%     15.39% # attempts to use FU when none available
system.cpu1.iq.fu_full::SimdFloatMultAcc            0      0.00%     15.39% # attempts to use FU when none available
system.cpu1.iq.fu_full::SimdFloatSqrt               0      0.00%     15.39% # attempts to use FU when none available
system.cpu1.iq.fu_full::SimdReduceAdd               0      0.00%     15.39% # attempts to use FU when none available
system.cpu1.iq.fu_full::SimdReduceAlu               0      0.00%     15.39% # attempts to use FU when none available
system.cpu1.iq.fu_full::SimdReduceCmp               0      0.00%     15.39% # attempts to use FU when none available
system.cpu1.iq.fu_full::SimdFloatReduceAdd            0      0.00%     15.39% # attempts to use FU when none available
system.cpu1.iq.fu_full::SimdFloatReduceCmp            0      0.00%     15.39% # attempts to use FU when none available
system.cpu1.iq.fu_full::SimdAes                     0      0.00%     15.39% # attempts to use FU when none available
system.cpu1.iq.fu_full::SimdAesMix                  0      0.00%     15.39% # attempts to use FU when none available
system.cpu1.iq.fu_full::SimdSha1Hash                0      0.00%     15.39% # attempts to use FU when none available
system.cpu1.iq.fu_full::SimdSha1Hash2               0      0.00%     15.39% # attempts to use FU when none available
system.cpu1.iq.fu_full::SimdSha256Hash              0      0.00%     15.39% # attempts to use FU when none available
system.cpu1.iq.fu_full::SimdSha256Hash2             0      0.00%     15.39% # attempts to use FU when none available
system.cpu1.iq.fu_full::SimdShaSigma2               0      0.00%     15.39% # attempts to use FU when none available
system.cpu1.iq.fu_full::SimdShaSigma3               0      0.00%     15.39% # attempts to use FU when none available
system.cpu1.iq.fu_full::SimdPredAlu                 0      0.00%     15.39% # attempts to use FU when none available
system.cpu1.iq.fu_full::MemRead               3078423     75.36%     90.75% # attempts to use FU when none available
system.cpu1.iq.fu_full::MemWrite               377840      9.25%    100.00% # attempts to use FU when none available
[...]
system.cpu1.dcache.WriteReq_hits::.cpu1.data      3419958                       # number of WriteReq hits
system.cpu1.dcache.WriteReq_hits::total       3419958                       # number of WriteReq hits
system.cpu1.dcache.WriteReq_misses::.cpu1.data      1227001                       # number of WriteReq misses
system.cpu1.dcache.WriteReq_misses::total      1227001                       # number of WriteReq misses
system.cpu1.dcache.WriteReq_miss_latency::.cpu1.data  87888057726                       # number of WriteReq miss cycles
system.cpu1.dcache.WriteReq_miss_latency::total  87888057726                       # number of WriteReq miss cycles
system.cpu1.dcache.WriteReq_accesses::.cpu1.data      4646959                       # number of WriteReq accesses(hits+misses)
system.cpu1.dcache.WriteReq_accesses::total      4646959                       # number of WriteReq accesses(hits+misses)
system.cpu1.dcache.WriteReq_miss_rate::.cpu1.data     0.264044                       # miss rate for WriteReq accesses
system.cpu1.dcache.WriteReq_miss_rate::total     0.264044                       # miss rate for WriteReq accesses
system.cpu1.dcache.WriteReq_avg_miss_latency::.cpu1.data 71628.350528                       # average WriteReq miss latency
system.cpu1.dcache.WriteReq_avg_miss_latency::total 71628.350528                       # average WriteReq miss latency
system.cpu1.dcache.WriteReq_mshr_hits::.cpu1.data      1004257                       # number of WriteReq MSHR hits
system.cpu1.dcache.WriteReq_mshr_hits::total      1004257                       # number of WriteReq MSHR hits
system.cpu1.dcache.WriteReq_mshr_misses::.cpu1.data       222744                       # number of WriteReq MSHR misses
system.cpu1.dcache.WriteReq_mshr_misses::total       222744                       # number of WriteReq MSHR misses
system.cpu1.dcache.WriteReq_mshr_miss_latency::.cpu1.data  11049420273                       # number of WriteReq MSHR miss cycles
system.cpu1.dcache.WriteReq_mshr_miss_latency::total  11049420273                       # number of WriteReq MSHR miss cycles
system.cpu1.dcache.WriteReq_mshr_miss_rate::.cpu1.data     0.047933                       # mshr miss rate for WriteReq accesses
system.cpu1.dcache.WriteReq_mshr_miss_rate::total     0.047933                       # mshr miss rate for WriteReq accesses
system.cpu1.dcache.WriteReq_avg_mshr_miss_latency::.cpu1.data 49605.916536                       # average WriteReq mshr miss latency
system.cpu1.dcache.WriteReq_avg_mshr_miss_latency::total 49605.916536                       # average WriteReq mshr miss latency
system.cpu1.dcache.LoadLockedReq_hits::.cpu1.data       137679                       # number of LoadLockedReq hits
system.cpu1.dcache.LoadLockedReq_hits::total       137679                       # number of LoadLockedReq hits
system.cpu1.dcache.LoadLockedReq_misses::.cpu1.data          820                       # number of LoadLockedReq misses
system.cpu1.dcache.LoadLockedReq_misses::total          820                       # number of LoadLockedReq misses
system.cpu1.dcache.LoadLockedReq_miss_latency::.cpu1.data     44394000                       # number of LoadLockedReq miss cycles
system.cpu1.dcache.LoadLockedReq_miss_latency::total     44394000                       # number of LoadLockedReq miss cycles
system.cpu1.dcache.LoadLockedReq_accesses::.cpu1.data       138499                       # number of LoadLockedReq accesses(hits+misses)
system.cpu1.dcache.LoadLockedReq_accesses::total       138499                       # number of LoadLockedReq accesses(hits+misses)
system.cpu1.dcache.LoadLockedReq_miss_rate::.cpu1.data     0.005921                       # miss rate for LoadLockedReq accesses
system.cpu1.dcache.LoadLockedReq_miss_rate::total     0.005921                       # miss rate for LoadLockedReq accesses
system.cpu1.dcache.LoadLockedReq_avg_miss_latency::.cpu1.data 54139.024390                       # average LoadLockedReq miss latency
system.cpu1.dcache.LoadLockedReq_avg_miss_latency::total 54139.024390                       # average LoadLockedReq miss latency
system.cpu1.dcache.LoadLockedReq_mshr_hits::.cpu1.data          326                       # number of LoadLockedReq MSHR hits
system.cpu1.dcache.LoadLockedReq_mshr_hits::total          326                       # number of LoadLockedReq MSHR hits
system.cpu1.dcache.LoadLockedReq_mshr_misses::.cpu1.data          494                       # number of LoadLockedReq MSHR misses
system.cpu1.dcache.LoadLockedReq_mshr_misses::total          494                       # number of LoadLockedReq MSHR misses
system.cpu1.dcache.LoadLockedReq_mshr_miss_latency::.cpu1.data     23928000                       # number of LoadLockedReq MSHR miss cycles
system.cpu1.dcache.LoadLockedReq_mshr_miss_latency::total     23928000                       # number of LoadLockedReq MSHR miss cycles
system.cpu1.dcache.LoadLockedReq_mshr_miss_rate::.cpu1.data     0.003567                       # mshr miss rate for LoadLockedReq accesses
system.cpu1.dcache.LoadLockedReq_mshr_miss_rate::total     0.003567                       # mshr miss rate for LoadLockedReq accesses
system.cpu1.dcache.LoadLockedReq_avg_mshr_miss_latency::.cpu1.data 48437.246964                       # average LoadLockedReq mshr miss latency
system.cpu1.dcache.LoadLockedReq_avg_mshr_miss_latency::total 48437.246964                       # average LoadLockedReq mshr miss latency
system.cpu1.dcache.StoreCondReq_hits::.cpu1.data       136440                       # number of StoreCondReq hits
system.cpu1.dcache.StoreCondReq_hits::total       136440                       # number of StoreCondReq hits
system.cpu1.dcache.StoreCondReq_misses::.cpu1.data         1738                       # number of StoreCondReq misses
system.cpu1.dcache.StoreCondReq_misses::total         1738                       # number of StoreCondReq misses
system.cpu1.dcache.StoreCondReq_miss_latency::.cpu1.data     12180000                       # number of StoreCondReq miss cycles
system.cpu1.dcache.StoreCondReq_miss_latency::total     12180000                       # number of StoreCondReq miss cycles
system.cpu1.dcache.StoreCondReq_accesses::.cpu1.data       138178                       # number of StoreCondReq accesses(hits+misses)
system.cpu1.dcache.StoreCondReq_accesses::total       138178                       # number of StoreCondReq accesses(hits+misses)
system.cpu1.dcache.StoreCondReq_miss_rate::.cpu1.data     0.012578                       # miss rate for StoreCondReq accesses
system.cpu1.dcache.StoreCondReq_miss_rate::total     0.012578                       # miss rate for StoreCondReq accesses
system.cpu1.dcache.StoreCondReq_avg_miss_latency::.cpu1.data  7008.055236                       # average StoreCondReq miss latency
system.cpu1.dcache.StoreCondReq_avg_miss_latency::total  7008.055236                       # average StoreCondReq miss latency
system.cpu1.dcache.StoreCondReq_mshr_misses::.cpu1.data         1696                       # number of StoreCondReq MSHR misses
system.cpu1.dcache.StoreCondReq_mshr_misses::total         1696                       # number of StoreCondReq MSHR misses
system.cpu1.dcache.StoreCondReq_mshr_miss_latency::.cpu1.data     10500000                       # number of StoreCondReq MSHR miss cycles
system.cpu1.dcache.StoreCondReq_mshr_miss_latency::total     10500000                       # number of StoreCondReq MSHR miss cycles
system.cpu1.dcache.StoreCondReq_mshr_miss_rate::.cpu1.data     0.012274                       # mshr miss rate for StoreCondReq accesses
system.cpu1.dcache.StoreCondReq_mshr_miss_rate::total     0.012274                       # mshr miss rate for StoreCondReq accesses
system.cpu1.dcache.StoreCondReq_avg_mshr_miss_latency::.cpu1.data  6191.037736                       # average StoreCondReq mshr miss latency
system.cpu1.dcache.StoreCondReq_avg_mshr_miss_latency::total  6191.037736                       # average StoreCondReq mshr miss latency
system.cpu1.dcache.StoreCondFailReq_miss_latency::.cpu1.data       230000                       # number of StoreCondFailReq miss cycles
system.cpu1.dcache.StoreCondFailReq_miss_latency::total       230000                       # number of StoreCondFailReq miss cycles
system.cpu1.dcache.StoreCondFailReq_avg_miss_latency::.cpu1.data          inf                       # average StoreCondFailReq miss latency
system.cpu1.dcache.StoreCondFailReq_avg_miss_latency::total          inf                       # average StoreCondFailReq miss latency
system.cpu1.dcache.StoreCondFailReq_mshr_miss_latency::.cpu1.data       214000                       # number of StoreCondFailReq MSHR miss cycles
system.cpu1.dcache.StoreCondFailReq_mshr_miss_latency::total       214000                       # number of StoreCondFailReq MSHR miss cycles
system.cpu1.dcache.StoreCondFailReq_avg_mshr_miss_latency::.cpu1.data          inf                       # average StoreCondFailReq mshr miss latency
system.cpu1.dcache.StoreCondFailReq_avg_mshr_miss_latency::total          inf                       # average StoreCondFailReq mshr miss latency
system.cpu1.dcache.SwapReq_hits::.cpu1.data         1718                       # number of SwapReq hits
system.cpu1.dcache.SwapReq_hits::total           1718                       # number of SwapReq hits
system.cpu1.dcache.SwapReq_misses::.cpu1.data         7178                       # number of SwapReq misses
system.cpu1.dcache.SwapReq_misses::total         7178                       # number of SwapReq misses
system.cpu1.dcache.SwapReq_miss_latency::.cpu1.data    361244499                       # number of SwapReq miss cycles
system.cpu1.dcache.SwapReq_miss_latency::total    361244499                       # number of SwapReq miss cycles
system.cpu1.dcache.SwapReq_accesses::.cpu1.data         8896                       # number of SwapReq accesses(hits+misses)
system.cpu1.dcache.SwapReq_accesses::total         8896                       # number of SwapReq accesses(hits+misses)
system.cpu1.dcache.SwapReq_miss_rate::.cpu1.data     0.806879                       # miss rate for SwapReq accesses
system.cpu1.dcache.SwapReq_miss_rate::total     0.806879                       # miss rate for SwapReq accesses
system.cpu1.dcache.SwapReq_avg_miss_latency::.cpu1.data 50326.622875                       # average SwapReq miss latency
system.cpu1.dcache.SwapReq_avg_miss_latency::total 50326.622875                       # average SwapReq miss latency
system.cpu1.dcache.SwapReq_mshr_misses::.cpu1.data         7178                       # number of SwapReq MSHR misses
system.cpu1.dcache.SwapReq_mshr_misses::total         7178                       # number of SwapReq MSHR misses
system.cpu1.dcache.SwapReq_mshr_miss_latency::.cpu1.data    354066499                       # number of SwapReq MSHR miss cycles
system.cpu1.dcache.SwapReq_mshr_miss_latency::total    354066499                       # number of SwapReq MSHR miss cycles
system.cpu1.dcache.SwapReq_mshr_miss_rate::.cpu1.data     0.806879                       # mshr miss rate for SwapReq accesses
system.cpu1.dcache.SwapReq_mshr_miss_rate::total     0.806879                       # mshr miss rate for SwapReq accesses
system.cpu1.dcache.SwapReq_avg_mshr_miss_latency::.cpu1.data 49326.622875                       # average SwapReq mshr miss latency
system.cpu1.dcache.SwapReq_avg_mshr_miss_latency::total 49326.622875                       # average SwapReq mshr miss latency
system.cpu1.dcache.tags.pwrStateResidencyTicks::UNDEFINED 214222518500                       # Cumulative time (in ticks) in various power states
system.cpu1.dcache.tags.tagsinuse           31.554967                       # Cycle average of tags in use
system.cpu1.dcache.tags.total_refs           48833397                       # Total number of references to valid blocks.
system.cpu1.dcache.tags.sampled_refs          5410508                       # Sample count of references to valid blocks.
system.cpu1.dcache.tags.avg_refs             9.025658                       # Average number of references to valid blocks.
system.cpu1.dcache.tags.warmup_cycle                0                       # Cycle when the warmup percentage was hit.
system.cpu1.dcache.tags.occ_blocks::.cpu1.data    31.554967                       # Average occupied blocks per requestor
system.cpu1.dcache.tags.occ_percent::.cpu1.data     0.986093                       # Average percentage of cache occupancy
system.cpu1.dcache.tags.occ_percent::total     0.986093                       # Average percentage of cache occupancy
system.cpu1.dcache.tags.occ_task_id_blocks::1024           28                       # Occupied blocks per task id
system.cpu1.dcache.tags.age_task_id_blocks_1024::1           28                       # Occupied blocks per task id
system.cpu1.dcache.tags.occ_task_id_percent::1024     0.875000                       # Percentage of cache occupancy per task id
system.cpu1.dcache.tags.tag_accesses        132418542                       # Number of tag accesses
system.cpu1.dcache.tags.data_accesses       132418542                       # Number of data accesses
system.cpu_clk_domain.clock                       500                       # Clock period in ticks
system.tol2bus.pwrStateResidencyTicks::UNDEFINED 214222518500                       # Cumulative time (in ticks) in various power states
system.tol2bus.trans_dist::ReadResp          10791437                       # Transaction distribution
system.tol2bus.trans_dist::WritebackDirty      2058388                       # Transaction distribution
system.tol2bus.trans_dist::WritebackClean      9809514                       # Transaction distribution
system.tol2bus.trans_dist::CleanEvict        15589144                       # Transaction distribution
system.tol2bus.trans_dist::HardPFReq          4009076                       # Transaction distribution
system.tol2bus.trans_dist::HardPFResp               8                       # Transaction distribution
system.tol2bus.trans_dist::UpgradeReq          123015                       # Transaction distribution
system.tol2bus.trans_dist::SCUpgradeReq          3945                       # Transaction distribution
system.tol2bus.trans_dist::UpgradeResp         126960                       # Transaction distribution
system.tol2bus.trans_dist::SCUpgradeFailReq           27                       # Transaction distribution
system.tol2bus.trans_dist::UpgradeFailResp           27                       # Transaction distribution
system.tol2bus.trans_dist::ReadExReq           408209                       # Transaction distribution
system.tol2bus.trans_dist::ReadExResp          408209                       # Transaction distribution
system.tol2bus.trans_dist::ReadCleanReq        143624                       # Transaction distribution
system.tol2bus.trans_dist::ReadSharedReq     10647813                       # Transaction distribution
system.tol2bus.trans_dist::InvalidateReq         4550                       # Transaction distribution
system.tol2bus.trans_dist::InvalidateResp         4550                       # Transaction distribution
system.tol2bus.pkt_count_system.cpu0.icache.mem_side::system.l2.cpu_side       357795                       # Packet count per connected master and slave (bytes)
system.tol2bus.pkt_count_system.cpu0.dcache.mem_side::system.l2.cpu_side     16854887                       # Packet count per connected master and slave (bytes)
system.tol2bus.pkt_count_system.cpu1.icache.mem_side::system.l2.cpu_side        73077                       # Packet count per connected master and slave (bytes)
system.tol2bus.pkt_count_system.cpu1.dcache.mem_side::system.l2.cpu_side     16134821                       # Packet count per connected master and slave (bytes)
system.tol2bus.pkt_count::total              33420580                       # Packet count per connected master and slave (bytes)
system.tol2bus.pkt_size_system.cpu0.icache.mem_side::system.l2.cpu_side     15265920                       # Cumulative packet size per connected master and slave (bytes)
system.tol2bus.pkt_size_system.cpu0.dcache.mem_side::system.l2.cpu_side    711922496                       # Cumulative packet size per connected master and slave (bytes)
system.tol2bus.pkt_size_system.cpu1.icache.mem_side::system.l2.cpu_side      3117952                       # Cumulative packet size per connected master and slave (bytes)
system.tol2bus.pkt_size_system.cpu1.dcache.mem_side::system.l2.cpu_side    681497600                       # Cumulative packet size per connected master and slave (bytes)
system.tol2bus.pkt_size::total             1411803968                       # Cumulative packet size per connected master and slave (bytes)
system.tol2bus.snoops                        20707924                       # Total snoops (count)
system.tol2bus.snoopTraffic                  64521856                       # Total snoop traffic (bytes)
system.tol2bus.snoop_fanout::samples         31765258                       # Request fanout histogram
system.tol2bus.snoop_fanout::mean            0.278905                       # Request fanout histogram
system.tol2bus.snoop_fanout::stdev           0.474659                       # Request fanout histogram
system.tol2bus.snoop_fanout::underflows             0      0.00%      0.00% # Request fanout histogram
system.tol2bus.snoop_fanout::0               23289888     73.32%     73.32% # Request fanout histogram
system.tol2bus.snoop_fanout::1                8091263     25.47%     98.79% # Request fanout histogram
system.tol2bus.snoop_fanout::2                 384107      1.21%    100.00% # Request fanout histogram
system.tol2bus.snoop_fanout::3                      0      0.00%    100.00% # Request fanout histogram
system.tol2bus.snoop_fanout::4                      0      0.00%    100.00% # Request fanout histogram
system.tol2bus.snoop_fanout::5                      0      0.00%    100.00% # Request fanout histogram
system.tol2bus.snoop_fanout::6                      0      0.00%    100.00% # Request fanout histogram
system.tol2bus.snoop_fanout::7                      0      0.00%    100.00% # Request fanout histogram
system.tol2bus.snoop_fanout::8                      0      0.00%    100.00% # Request fanout histogram
system.tol2bus.snoop_fanout::overflows              0      0.00%    100.00% # Request fanout histogram
system.tol2bus.snoop_fanout::min_value              0                       # Request fanout histogram
system.tol2bus.snoop_fanout::max_value              2                       # Request fanout histogram
system.tol2bus.snoop_fanout::total           31765258                       # Request fanout histogram
system.tol2bus.reqLayer0.occupancy        22221920042                       # Layer occupancy (ticks)
system.tol2bus.reqLayer0.utilization             10.4                       # Layer utilization (%)
system.tol2bus.respLayer1.occupancy        8524340268                       # Layer occupancy (ticks)
system.tol2bus.respLayer1.utilization             4.0                       # Layer utilization (%)
system.tol2bus.respLayer0.occupancy         179931428                       # Layer occupancy (ticks)
system.tol2bus.respLayer0.utilization             0.1                       # Layer utilization (%)
system.tol2bus.respLayer3.occupancy        8169185446                       # Layer occupancy (ticks)
system.tol2bus.respLayer3.utilization             3.8                       # Layer utilization (%)
system.tol2bus.respLayer2.occupancy          36859357                       # Layer occupancy (ticks)
system.tol2bus.respLayer2.utilization             0.0                       # Layer utilization (%)
system.tol2bus.snoopLayer0.occupancy            12009                       # Layer occupancy (ticks)
system.tol2bus.snoopLayer0.utilization            0.0                       # Layer utilization (%)

---------- End Simulation Statistics   ----------
