
---------- Begin Simulation Statistics ----------
final_tick                               491948268500                       # Number of ticks from beginning of simulation (restored from checkpoints and never reset)
host_inst_rate                                 100207                       # Simulator instruction rate (inst/s)
host_mem_usage                                 739336                       # Number of bytes of host memory used
host_op_rate                                   100540                       # Simulator op (including micro ops) rate (op/s)
host_seconds                                  6121.40                       # Real time elapsed on the host
host_tick_rate                               80365381                       # Simulator tick rate (ticks/s)
sim_freq                                 1000000000000                       # Frequency of simulated ticks
sim_insts                                   613403912                       # Number of instructions simulated
sim_ops                                     615442680                       # Number of ops (including micro ops) simulated
sim_seconds                                  0.491948                       # Number of seconds simulated
sim_ticks                                491948268500                       # Number of ticks simulated
system.cpu0.branchPred.BTBCorrect                   0                       # Number of correct BTB predictions (this stat may not work properly.
system.cpu0.branchPred.BTBHitPct            86.399570                       # BTB Hit Percentage
system.cpu0.branchPred.BTBHits               77487226                       # Number of BTB hits
system.cpu0.branchPred.BTBLookups            89684736                       # Number of BTB lookups
system.cpu0.branchPred.RASInCorrect                 0                       # Number of incorrect RAS predictions.
system.cpu0.branchPred.condIncorrect          8522175                       # Number of conditional branches incorrect
system.cpu0.branchPred.condPredicted        119893117                       # Number of conditional branches predicted
system.cpu0.branchPred.indirectHits          11665682                       # Number of indirect target hits.
system.cpu0.branchPred.indirectLookups       11795291                       # Number of indirect predictor lookups.
system.cpu0.branchPred.indirectMisses          129609                       # Number of indirect misses.
system.cpu0.branchPred.lookups              155618420                       # Number of BP lookups
system.cpu0.branchPred.usedRAS                      0                       # Number of times the RAS was used to get a target.
system.cpu0.branchPredindirectMispredicted      1052533                       # Number of mispredicted indirect branches.
system.cpu0.commit.amos                        509401                       # Number of atomic instructions committed
system.cpu0.commit.branchMispredicts          5606791                       # The number of times a branch was mispredicted
system.cpu0.commit.branches                 138968881                       # Number of branches committed
system.cpu0.commit.bw_lim_events             17646006                       # number cycles where commit BW limit reached
system.cpu0.commit.commitNonSpecStalls        1532369                       # The number of times commit has been forced to stall to communicate backwards
system.cpu0.commit.commitSquashedInsts       55559716                       # The number of squashed insts skipped by commit
system.cpu0.commit.committedInsts           561795558                       # Number of instructions committed
system.cpu0.commit.committedOps             562306228                       # Number of ops (including micro ops) committed
system.cpu0.commit.committed_per_cycle::samples    891868750                       # Number of insts commited each cycle
system.cpu0.commit.committed_per_cycle::mean     0.630481                       # Number of insts commited each cycle
system.cpu0.commit.committed_per_cycle::stdev     1.431889                       # Number of insts commited each cycle
system.cpu0.commit.committed_per_cycle::underflows            0      0.00%      0.00% # Number of insts commited each cycle
system.cpu0.commit.committed_per_cycle::0    629185608     70.55%     70.55% # Number of insts commited each cycle
system.cpu0.commit.committed_per_cycle::1    155550122     17.44%     87.99% # Number of insts commited each cycle
system.cpu0.commit.committed_per_cycle::2     35488682      3.98%     91.97% # Number of insts commited each cycle
system.cpu0.commit.committed_per_cycle::3     34612749      3.88%     95.85% # Number of insts commited each cycle
system.cpu0.commit.committed_per_cycle::4     11673923      1.31%     97.16% # Number of insts commited each cycle
system.cpu0.commit.committed_per_cycle::5      4436608      0.50%     97.65% # Number of insts commited each cycle
system.cpu0.commit.committed_per_cycle::6      1031649      0.12%     97.77% # Number of insts commited each cycle
system.cpu0.commit.committed_per_cycle::7      2243403      0.25%     98.02% # Number of insts commited each cycle
system.cpu0.commit.committed_per_cycle::8     17646006      1.98%    100.00% # Number of insts commited each cycle
system.cpu0.commit.committed_per_cycle::overflows            0      0.00%    100.00% # Number of insts commited each cycle
system.cpu0.commit.committed_per_cycle::min_value            0                       # Number of insts commited each cycle
system.cpu0.commit.committed_per_cycle::max_value            8                       # Number of insts commited each cycle
system.cpu0.commit.committed_per_cycle::total    891868750                       # Number of insts commited each cycle
system.cpu0.commit.fp_insts                        50                       # Number of committed floating point instructions.
system.cpu0.commit.function_calls            11672266                       # Number of function calls committed.
system.cpu0.commit.int_insts                543442002                       # Number of committed integer instructions.
system.cpu0.commit.loads                    174758184                       # Number of loads committed
system.cpu0.commit.membars                    1019953                       # Number of memory barriers committed
system.cpu0.commit.op_class_0::No_OpClass      1019959      0.18%      0.18% # Class of committed instruction
system.cpu0.commit.op_class_0::IntAlu       311047201     55.32%     55.50% # Class of committed instruction
system.cpu0.commit.op_class_0::IntMult        4137156      0.74%     56.23% # Class of committed instruction
system.cpu0.commit.op_class_0::IntDiv         1017773      0.18%     56.41% # Class of committed instruction
system.cpu0.commit.op_class_0::FloatAdd             0      0.00%     56.41% # Class of committed instruction
system.cpu0.commit.op_class_0::FloatCmp             4      0.00%     56.41% # Class of committed instruction
system.cpu0.commit.op_class_0::FloatCvt            12      0.00%     56.41% # Class of committed instruction
system.cpu0.commit.op_class_0::FloatMult            0      0.00%     56.41% # Class of committed instruction
system.cpu0.commit.op_class_0::FloatMultAcc            0      0.00%     56.41% # Class of committed instruction
system.cpu0.commit.op_class_0::FloatDiv             2      0.00%     56.41% # Class of committed instruction
system.cpu0.commit.op_class_0::FloatMisc            4      0.00%     56.41% # Class of committed instruction
system.cpu0.commit.op_class_0::FloatSqrt            0      0.00%     56.41% # Class of committed instruction
system.cpu0.commit.op_class_0::SimdAdd              0      0.00%     56.41% # Class of committed instruction
system.cpu0.commit.op_class_0::SimdAddAcc            0      0.00%     56.41% # Class of committed instruction
system.cpu0.commit.op_class_0::SimdAlu              0      0.00%     56.41% # Class of committed instruction
system.cpu0.commit.op_class_0::SimdCmp              0      0.00%     56.41% # Class of committed instruction
system.cpu0.commit.op_class_0::SimdCvt              0      0.00%     56.41% # Class of committed instruction
system.cpu0.commit.op_class_0::SimdMisc             0      0.00%     56.41% # Class of committed instruction
system.cpu0.commit.op_class_0::SimdMult             0      0.00%     56.41% # Class of committed instruction
system.cpu0.commit.op_class_0::SimdMultAcc            0      0.00%     56.41% # Class of committed instruction
system.cpu0.commit.op_class_0::SimdShift            0      0.00%     56.41% # Class of committed instruction
system.cpu0.commit.op_class_0::SimdShiftAcc            0      0.00%     56.41% # Class of committed instruction
system.cpu0.commit.op_class_0::SimdDiv              0      0.00%     56.41% # Class of committed instruction
system.cpu0.commit.op_class_0::SimdSqrt             0      0.00%     56.41% # Class of committed instruction
system.cpu0.commit.op_class_0::SimdFloatAdd            0      0.00%     56.41% # Class of committed instruction
system.cpu0.commit.op_class_0::SimdFloatAlu            0      0.00%     56.41% # Class of committed instruction
system.cpu0.commit.op_class_0::SimdFloatCmp            0      0.00%     56.41% # Class of committed instruction
system.cpu0.commit.op_class_0::SimdFloatCvt            0      0.00%     56.41% # Class of committed instruction
system.cpu0.commit.op_class_0::SimdFloatDiv            0      0.00%     56.41% # Class of committed instruction
system.cpu0.commit.op_class_0::SimdFloatMisc            0      0.00%     56.41% # Class of committed instruction
system.cpu0.commit.op_class_0::SimdFloatMult            0      0.00%     56.41% # Class of committed instruction
system.cpu0.commit.op_class_0::SimdFloatMultAcc            0      0.00%     56.41% # Class of committed instruction
system.cpu0.commit.op_class_0::SimdFloatSqrt            0      0.00%     56.41% # Class of committed instruction
system.cpu0.commit.op_class_0::SimdReduceAdd            0      0.00%     56.41% # Class of committed instruction
system.cpu0.commit.op_class_0::SimdReduceAlu            0      0.00%     56.41% # Class of committed instruction
system.cpu0.commit.op_class_0::SimdReduceCmp            0      0.00%     56.41% # Class of committed instruction
system.cpu0.commit.op_class_0::SimdFloatReduceAdd            0      0.00%     56.41% # Class of committed instruction
system.cpu0.commit.op_class_0::SimdFloatReduceCmp            0      0.00%     56.41% # Class of committed instruction
system.cpu0.commit.op_class_0::SimdAes              0      0.00%     56.41% # Class of committed instruction
system.cpu0.commit.op_class_0::SimdAesMix            0      0.00%     56.41% # Class of committed instruction
system.cpu0.commit.op_class_0::SimdSha1Hash            0      0.00%     56.41% # Class of committed instruction
system.cpu0.commit.op_class_0::SimdSha1Hash2            0      0.00%     56.41% # Class of committed instruction
system.cpu0.commit.op_class_0::SimdSha256Hash            0      0.00%     56.41% # Class of committed instruction
system.cpu0.commit.op_class_0::SimdSha256Hash2            0      0.00%     56.41% # Class of committed instruction
system.cpu0.commit.op_class_0::SimdShaSigma2            0      0.00%     56.41% # Class of committed instruction
system.cpu0.commit.op_class_0::SimdShaSigma3            0      0.00%     56.41% # Class of committed instruction
system.cpu0.commit.op_class_0::SimdPredAlu            0      0.00%     56.41% # Class of committed instruction
system.cpu0.commit.op_class_0::MemRead      175267577     31.17%     87.58% # Class of committed instruction
system.cpu0.commit.op_class_0::MemWrite      69816512     12.42%    100.00% # Class of committed instruction
system.cpu0.commit.op_class_0::FloatMemRead            8      0.00%    100.00% # Class of committed instruction
system.cpu0.commit.op_class_0::FloatMemWrite           20      0.00%    100.00% # Class of committed instruction
system.cpu0.commit.op_class_0::IprAccess            0      0.00%    100.00% # Class of committed instruction
system.cpu0.commit.op_class_0::InstPrefetch            0      0.00%    100.00% # Class of committed instruction
system.cpu0.commit.op_class_0::total        562306228                       # Class of committed instruction
system.cpu0.commit.refs                     245084117                       # Number of memory references committed
system.cpu0.commit.swp_count                        0                       # Number of s/w prefetches committed
system.cpu0.commit.vec_insts                        0                       # Number of committed Vector instructions.
system.cpu0.committedInsts                  561795558                       # Number of Instructions Simulated
system.cpu0.committedOps                    562306228                       # Number of Ops (including micro ops) Simulated
system.cpu0.cpi                              1.727577                       # CPI: Cycles Per Instruction
system.cpu0.cpi_total                        1.727577                       # CPI: Total CPI of All Threads
system.cpu0.decode.BlockedCycles            111163758                       # Number of cycles decode is blocked
system.cpu0.decode.BranchMispred              2919958                       # Number of times decode detected a branch misprediction
system.cpu0.decode.BranchResolved            75828566                       # Number of times decode resolved a branch
system.cpu0.decode.DecodedInsts             630377024                       # Number of instructions handled by decode
system.cpu0.decode.IdleCycles               347582843                       # Number of cycles decode is idle
system.cpu0.decode.RunCycles                435694523                       # Number of cycles decode is running
system.cpu0.decode.SquashCycles               5611831                       # Number of cycles decode is squashing
system.cpu0.decode.SquashedInsts              9578113                       # Number of squashed instructions handled by decode
system.cpu0.decode.UnblockCycles              2578109                       # Number of cycles decode is unblocking
system.cpu0.dtb.accesses                            0                       # DTB accesses
system.cpu0.dtb.hits                                0                       # DTB hits
system.cpu0.dtb.misses                              0                       # DTB misses
system.cpu0.dtb.read_accesses                       0                       # DTB read accesses
system.cpu0.dtb.read_hits                           0                       # DTB read hits
system.cpu0.dtb.read_misses                         0                       # DTB read misses
system.cpu0.dtb.write_accesses                      0                       # DTB write accesses
system.cpu0.dtb.write_hits                          0                       # DTB write hits
system.cpu0.dtb.write_misses                        0                       # DTB write misses
system.cpu0.fetch.Branches                  155618420                       # Number of branches that fetch encountered
system.cpu0.fetch.CacheLines                102358557                       # Number of cache lines fetched
system.cpu0.fetch.Cycles                    554647599                       # Number of cycles fetch has run and was not squashing or blocked
system.cpu0.fetch.IcacheSquashes              2909804                       # Number of outstanding Icache misses that were squashed
system.cpu0.fetch.IcacheWaitRetryStallCycles           87                       # Number of stall cycles due to full MSHR
system.cpu0.fetch.Insts                     649848390                       # Number of instructions fetch has processed
system.cpu0.fetch.MiscStallCycles                  23                       # Number of cycles fetch has spent waiting on interrupts, or bad addresses, or out of MSHRs
system.cpu0.fetch.PendingTrapStallCycles          102                       # Number of stall cycles due to pending traps
system.cpu0.fetch.SquashCycles               17054462                       # Number of cycles fetch has spent squashing
system.cpu0.fetch.branchRate                 0.160341                       # Number of branch fetches per cycle
system.cpu0.fetch.icacheStallCycles         339456022                       # Number of cycles fetch is stalled on an Icache miss
system.cpu0.fetch.predictedBranches          89152908                       # Number of branches that fetch has predicted taken
system.cpu0.fetch.rate                       0.669570                       # Number of inst fetches per cycle
system.cpu0.fetch.rateDist::samples         902631064                       # Number of instructions fetched each cycle (Total)
system.cpu0.fetch.rateDist::mean             0.720515                       # Number of instructions fetched each cycle (Total)
system.cpu0.fetch.rateDist::stdev            0.934678                       # Number of instructions fetched each cycle (Total)
system.cpu0.fetch.rateDist::underflows              0      0.00%      0.00% # Number of instructions fetched each cycle (Total)
system.cpu0.fetch.rateDist::0               447335772     49.56%     49.56% # Number of instructions fetched each cycle (Total)
system.cpu0.fetch.rateDist::1               336847155     37.32%     86.88% # Number of instructions fetched each cycle (Total)
system.cpu0.fetch.rateDist::2                61296765      6.79%     93.67% # Number of instructions fetched each cycle (Total)
system.cpu0.fetch.rateDist::3                43714503      4.84%     98.51% # Number of instructions fetched each cycle (Total)
system.cpu0.fetch.rateDist::4                10571121      1.17%     99.68% # Number of instructions fetched each cycle (Total)
system.cpu0.fetch.rateDist::5                 1745521      0.19%     99.88% # Number of instructions fetched each cycle (Total)
system.cpu0.fetch.rateDist::6                   99087      0.01%     99.89% # Number of instructions fetched each cycle (Total)
system.cpu0.fetch.rateDist::7                     456      0.00%     99.89% # Number of instructions fetched each cycle (Total)
system.cpu0.fetch.rateDist::8                 1020684      0.11%    100.00% # Number of instructions fetched each cycle (Total)
system.cpu0.fetch.rateDist::overflows               0      0.00%    100.00% # Number of instructions fetched each cycle (Total)
system.cpu0.fetch.rateDist::min_value               0                       # Number of instructions fetched each cycle (Total)
system.cpu0.fetch.rateDist::max_value               8                       # Number of instructions fetched each cycle (Total)
system.cpu0.fetch.rateDist::total           902631064                       # Number of instructions fetched each cycle (Total)
system.cpu0.fp_regfile_reads                       44                       # number of floating regfile reads
system.cpu0.fp_regfile_writes                      23                       # number of floating regfile writes
system.cpu0.idleCycles                       67914269                       # Total number of cycles that the CPU has spent unscheduled due to idling
system.cpu0.iew.branchMispredicts             5720087                       # Number of branch mispredicts detected at execute
system.cpu0.iew.exec_branches               146545722                       # Number of branches executed
system.cpu0.iew.exec_nop                            0                       # number of nop insts executed
system.cpu0.iew.exec_rate                    0.631484                       # Inst execution rate
system.cpu0.iew.exec_refs                   276145044                       # number of memory reference insts executed
system.cpu0.iew.exec_stores                  77674305                       # Number of stores executed
system.cpu0.iew.exec_swp                            0                       # number of swp insts executed
system.cpu0.iew.iewBlockCycles               86190829                       # Number of cycles IEW is blocking
system.cpu0.iew.iewDispLoadInsts            197754580                       # Number of dispatched load instructions
system.cpu0.iew.iewDispNonSpecInsts            512660                       # Number of dispatched non-speculative instructions
system.cpu0.iew.iewDispSquashedInsts          2811501                       # Number of squashed instructions skipped by dispatch
system.cpu0.iew.iewDispStoreInsts            78726751                       # Number of dispatched store instructions
system.cpu0.iew.iewDispatchedInsts          617850158                       # Number of instructions dispatched to IQ
system.cpu0.iew.iewExecLoadInsts            198470739                       # Number of load instructions executed
system.cpu0.iew.iewExecSquashedInsts          3899971                       # Number of squashed instructions skipped in execute
system.cpu0.iew.iewExecutedInsts            612883590                       # Number of executed instructions
system.cpu0.iew.iewIQFullEvents                473244                       # Number of times the IQ has become full, causing a stall
system.cpu0.iew.iewIdleCycles                       0                       # Number of cycles IEW is idle
system.cpu0.iew.iewLSQFullEvents              2180979                       # Number of times the LSQ has become full, causing a stall
system.cpu0.iew.iewSquashCycles               5611831                       # Number of cycles IEW is squashing
system.cpu0.iew.iewUnblockCycles              3224061                       # Number of cycles IEW is unblocking
system.cpu0.iew.lsq.thread0.blockedLoads            0                       # Number of blocked loads due to partial load-store forwarding
system.cpu0.iew.lsq.thread0.cacheBlocked       142004                       # Number of times an access to memory failed due to the cache being blocked
system.cpu0.iew.lsq.thread0.forwLoads         9670307                       # Number of loads that had data forwarded from stores
system.cpu0.iew.lsq.thread0.ignoredResponses        30920                       # Number of memory responses ignored because the instruction is squashed
system.cpu0.iew.lsq.thread0.invAddrLoads            0                       # Number of loads ignored due to an invalid address
system.cpu0.iew.lsq.thread0.invAddrSwpfs            0                       # Number of software prefetches ignored due to an invalid address
system.cpu0.iew.lsq.thread0.memOrderViolation         5517                       # Number of memory ordering violations
system.cpu0.iew.lsq.thread0.rescheduledLoads      3538255                       # Number of loads that were rescheduled
system.cpu0.iew.lsq.thread0.squashedLoads     22996396                       # Number of loads squashed
system.cpu0.iew.lsq.thread0.squashedStores      8400818                       # Number of stores squashed
system.cpu0.iew.memOrderViolationEvents          5517                       # Number of memory order violations
system.cpu0.iew.predictedNotTakenIncorrect       828364                       # Number of branches that were predicted not taken incorrectly
system.cpu0.iew.predictedTakenIncorrect       4891723                       # Number of branches that were predicted taken incorrectly
system.cpu0.iew.wb_consumers                272801324                       # num instructions consuming a value
system.cpu0.iew.wb_count                    605846721                       # cumulative count of insts written-back
system.cpu0.iew.wb_fanout                    0.836072                       # average fanout of values written-back
system.cpu0.iew.wb_producers                228081620                       # num instructions producing a value
system.cpu0.iew.wb_rate                      0.624233                       # insts written-back per cycle
system.cpu0.iew.wb_sent                     605952273                       # cumulative count of insts sent to commit
system.cpu0.int_regfile_reads               745687731                       # number of integer regfile reads
system.cpu0.int_regfile_writes              387388374                       # number of integer regfile writes
system.cpu0.ipc                              0.578845                       # IPC: Instructions Per Cycle
system.cpu0.ipc_total                        0.578845                       # IPC: Total IPC of All Threads
system.cpu0.iq.FU_type_0::No_OpClass          1020981      0.17%      0.17% # Type of FU issued
system.cpu0.iq.FU_type_0::IntAlu            332724805     53.95%     54.11% # Type of FU issued
system.cpu0.iq.FU_type_0::IntMult             4213173      0.68%     54.79% # Type of FU issued
system.cpu0.iq.FU_type_0::IntDiv              1018063      0.17%     54.96% # Type of FU issued
system.cpu0.iq.FU_type_0::FloatAdd                  0      0.00%     54.96% # Type of FU issued
system.cpu0.iq.FU_type_0::FloatCmp                  4      0.00%     54.96% # Type of FU issued
system.cpu0.iq.FU_type_0::FloatCvt                 12      0.00%     54.96% # Type of FU issued
system.cpu0.iq.FU_type_0::FloatMult                 0      0.00%     54.96% # Type of FU issued
system.cpu0.iq.FU_type_0::FloatMultAcc              0      0.00%     54.96% # Type of FU issued
system.cpu0.iq.FU_type_0::FloatDiv                  2      0.00%     54.96% # Type of FU issued
system.cpu0.iq.FU_type_0::FloatMisc                 4      0.00%     54.96% # Type of FU issued
system.cpu0.iq.FU_type_0::FloatSqrt                 0      0.00%     54.96% # Type of FU issued
system.cpu0.iq.FU_type_0::SimdAdd                   0      0.00%     54.96% # Type of FU issued
system.cpu0.iq.FU_type_0::SimdAddAcc                0      0.00%     54.96% # Type of FU issued
system.cpu0.iq.FU_type_0::SimdAlu                   0      0.00%     54.96% # Type of FU issued
system.cpu0.iq.FU_type_0::SimdCmp                   0      0.00%     54.96% # Type of FU issued
system.cpu0.iq.FU_type_0::SimdCvt                   0      0.00%     54.96% # Type of FU issued
system.cpu0.iq.FU_type_0::SimdMisc                  0      0.00%     54.96% # Type of FU issued
system.cpu0.iq.FU_type_0::SimdMult                  0      0.00%     54.96% # Type of FU issued
system.cpu0.iq.FU_type_0::SimdMultAcc               0      0.00%     54.96% # Type of FU issued
system.cpu0.iq.FU_type_0::SimdShift                 0      0.00%     54.96% # Type of FU issued
system.cpu0.iq.FU_type_0::SimdShiftAcc              0      0.00%     54.96% # Type of FU issued
system.cpu0.iq.FU_type_0::SimdDiv                   0      0.00%     54.96% # Type of FU issued
system.cpu0.iq.FU_type_0::SimdSqrt                  0      0.00%     54.96% # Type of FU issued
system.cpu0.iq.FU_type_0::SimdFloatAdd              0      0.00%     54.96% # Type of FU issued
system.cpu0.iq.FU_type_0::SimdFloatAlu              0      0.00%     54.96% # Type of FU issued
system.cpu0.iq.FU_type_0::SimdFloatCmp              0      0.00%     54.96% # Type of FU issued
system.cpu0.iq.FU_type_0::SimdFloatCvt              0      0.00%     54.96% # Type of FU issued
system.cpu0.iq.FU_type_0::SimdFloatDiv              0      0.00%     54.96% # Type of FU issued
system.cpu0.iq.FU_type_0::SimdFloatMisc             0      0.00%     54.96% # Type of FU issued
system.cpu0.iq.FU_type_0::SimdFloatMult             0      0.00%     54.96% # Type of FU issued
system.cpu0.iq.FU_type_0::SimdFloatMultAcc            0      0.00%     54.96% # Type of FU issued
system.cpu0.iq.FU_type_0::SimdFloatSqrt             0      0.00%     54.96% # Type of FU issued
system.cpu0.iq.FU_type_0::SimdReduceAdd             0      0.00%     54.96% # Type of FU issued
system.cpu0.iq.FU_type_0::SimdReduceAlu             0      0.00%     54.96% # Type of FU issued
system.cpu0.iq.FU_type_0::SimdReduceCmp             0      0.00%     54.96% # Type of FU issued
system.cpu0.iq.FU_type_0::SimdFloatReduceAdd            0      0.00%     54.96% # Type of FU issued
system.cpu0.iq.FU_type_0::SimdFloatReduceCmp            0      0.00%     54.96% # Type of FU issued
system.cpu0.iq.FU_type_0::SimdAes                   0      0.00%     54.96% # Type of FU issued
system.cpu0.iq.FU_type_0::SimdAesMix                0      0.00%     54.96% # Type of FU issued
system.cpu0.iq.FU_type_0::SimdSha1Hash              0      0.00%     54.96% # Type of FU issued
system.cpu0.iq.FU_type_0::SimdSha1Hash2             0      0.00%     54.96% # Type of FU issued
system.cpu0.iq.FU_type_0::SimdSha256Hash            0      0.00%     54.96% # Type of FU issued
system.cpu0.iq.FU_type_0::SimdSha256Hash2            0      0.00%     54.96% # Type of FU issued
system.cpu0.iq.FU_type_0::SimdShaSigma2             0      0.00%     54.96% # Type of FU issued
system.cpu0.iq.FU_type_0::SimdShaSigma3             0      0.00%     54.96% # Type of FU issued
system.cpu0.iq.FU_type_0::SimdPredAlu               0      0.00%     54.96% # Type of FU issued
system.cpu0.iq.FU_type_0::MemRead           200250777     32.47%     87.43% # Type of FU issued
system.cpu0.iq.FU_type_0::MemWrite           77555711     12.57%    100.00% # Type of FU issued
system.cpu0.iq.FU_type_0::FloatMemRead              9      0.00%    100.00% # Type of FU issued
system.cpu0.iq.FU_type_0::FloatMemWrite            20      0.00%    100.00% # Type of FU issued
system.cpu0.iq.FU_type_0::IprAccess                 0      0.00%    100.00% # Type of FU issued
system.cpu0.iq.FU_type_0::InstPrefetch              0      0.00%    100.00% # Type of FU issued
system.cpu0.iq.FU_type_0::total             616783561                       # Type of FU issued
system.cpu0.iq.fp_alu_accesses                     55                       # Number of floating point alu accesses
system.cpu0.iq.fp_inst_queue_reads                106                       # Number of floating instruction queue reads
system.cpu0.iq.fp_inst_queue_wakeup_accesses           51                       # Number of floating instruction queue wakeup accesses
system.cpu0.iq.fp_inst_queue_writes                52                       # Number of floating instruction queue writes
system.cpu0.iq.fu_busy_cnt                     881699                       # FU busy when requested
system.cpu0.iq.fu_busy_rate                  0.001430                       # FU busy rate (busy events/executed inst)
system.cpu0.iq.fu_full::No_OpClass                  0      0.00%      0.00% # attempts to use FU when none available
system.cpu0.iq.fu_full::IntAlu                 169657     19.24%     19.24% # attempts to use FU when none available
system.cpu0.iq.fu_full::IntMult                     7      0.00%     19.24% # attempts to use FU when none available
system.cpu0.iq.fu_full::IntDiv                      0      0.00%     19.24% # attempts to use FU when none available
system.cpu0.iq.fu_full::FloatAdd                    0      0.00%     19.24% # attempts to use FU when none available
system.cpu0.iq.fu_full::FloatCmp                    0      0.00%     19.24% # attempts to use FU when none available
system.cpu0.iq.fu_full::FloatCvt                    0      0.00%     19.24% # attempts to use FU when none available
system.cpu0.iq.fu_full::FloatMult                   0      0.00%     19.24% # attempts to use FU when none available
system.cpu0.iq.fu_full::FloatMultAcc                0      0.00%     19.24% # attempts to use FU when none available
system.cpu0.iq.fu_full::FloatDiv                    0      0.00%     19.24% # attempts to use FU when none available
system.cpu0.iq.fu_full::FloatMisc                   0      0.00%     19.24% # attempts to use FU when none available
system.cpu0.iq.fu_full::FloatSqrt                   0      0.00%     19.24% # attempts to use FU when none available
system.cpu0.iq.fu_full::SimdAdd                     0      0.00%     19.24% # attempts to use FU when none available
system.cpu0.iq.fu_full::SimdAddAcc                  0      0.00%     19.24% # attempts to use FU when none available
system.cpu0.iq.fu_full::SimdAlu                     0      0.00%     19.24% # attempts to use FU when none available
system.cpu0.iq.fu_full::SimdCmp                     0      0.00%     19.24% # attempts to use FU when none available
system.cpu0.iq.fu_full::SimdCvt                     0      0.00%     19.24% # attempts to use FU when none available
system.cpu0.iq.fu_full::SimdMisc                    0      0.00%     19.24% # attempts to use FU when none available
system.cpu0.iq.fu_full::SimdMult                    0      0.00%     19.24% # attempts to use FU when none available
system.cpu0.iq.fu_full::SimdMultAcc                 0      0.00%     19.24% # attempts to use FU when none available
system.cpu0.iq.fu_full::SimdShift                   0      0.00%     19.24% # attempts to use FU when none available
system.cpu0.iq.fu_full::SimdShiftAcc                0      0.00%     19.24% # attempts to use FU when none available
system.cpu0.iq.fu_full::SimdDiv                     0      0.00%     19.24% # attempts to use FU when none available
system.cpu0.iq.fu_full::SimdSqrt                    0      0.00%     19.24% # attempts to use FU when none available
system.cpu0.iq.fu_full::SimdFloatAdd                0      0.00%     19.24% # attempts to use FU when none available
system.cpu0.iq.fu_full::SimdFloatAlu                0      0.00%     19.24% # attempts to use FU when none available
system.cpu0.iq.fu_full::SimdFloatCmp                0      0.00%     19.24% # attempts to use FU when none available
system.cpu0.iq.fu_full::SimdFloatCvt                0      0.00%     19.24% # attempts to use FU when none available
system.cpu0.iq.fu_full::SimdFloatDiv                0      0.00%     19.24% # attempts to use FU when none available
system.cpu0.iq.fu_full::SimdFloatMisc               0      0.00%     19.24% # attempts to use FU when none available
system.cpu0.iq.fu_full::SimdFloatMult               0      0.00%     19.24% # attempts to use FU when none available
system.cpu0.iq.fu_full::SimdFloatMultAcc            0      0.00%     19.24% # attempts to use FU when none available
system.cpu0.iq.fu_full::SimdFloatSqrt               0      0.00%     19.24% # attempts to use FU when none available
system.cpu0.iq.fu_full::SimdReduceAdd               0      0.00%     19.24% # attempts to use FU when none available
system.cpu0.iq.fu_full::SimdReduceAlu               0      0.00%     19.24% # attempts to use FU when none available
system.cpu0.iq.fu_full::SimdReduceCmp               0      0.00%     19.24% # attempts to use FU when none available
system.cpu0.iq.fu_full::SimdFloatReduceAdd            0      0.00%     19.24% # attempts to use FU when none available
system.cpu0.iq.fu_full::SimdFloatReduceCmp            0      0.00%     19.24% # attempts to use FU when none available
system.cpu0.iq.fu_full::SimdAes                     0      0.00%     19.24% # attempts to use FU when none available
system.cpu0.iq.fu_full::SimdAesMix                  0      0.00%     19.24% # attempts to use FU when none available
system.cpu0.iq.fu_full::SimdSha1Hash                0      0.00%     19.24% # attempts to use FU when none available
system.cpu0.iq.fu_full::SimdSha1Hash2               0      0.00%     19.24% # attempts to use FU when none available
system.cpu0.iq.fu_full::SimdSha256Hash              0      0.00%     19.24% # attempts to use FU when none available
system.cpu0.iq.fu_full::SimdSha256Hash2             0      0.00%     19.24% # attempts to use FU when none available
system.cpu0.iq.fu_full::SimdShaSigma2               0      0.00%     19.24% # attempts to use FU when none available
system.cpu0.iq.fu_full::SimdShaSigma3               0      0.00%     19.24% # attempts to use FU when none available
system.cpu0.iq.fu_full::SimdPredAlu                 0      0.00%     19.24% # attempts to use FU when none available
system.cpu0.iq.fu_full::MemRead                607657     68.92%     88.16% # attempts to use FU when none available
system.cpu0.iq.fu_full::MemWrite               104374     11.84%    100.00% # attempts to use FU when none available
system.cpu0.iq.fu_full::FloatMemRead                0      0.00%    100.00% # attempts to use FU when none available
system.cpu0.iq.fu_full::FloatMemWrite               4      0.00%    100.00% # attempts to use FU when none available
system.cpu0.iq.fu_full::IprAccess                   0      0.00%    100.00% # attempts to use FU when none available
system.cpu0.iq.fu_full::InstPrefetch                0      0.00%    100.00% # attempts to use FU when none available
system.cpu0.iq.int_alu_accesses             616644224                       # Number of integer alu accesses
system.cpu0.iq.int_inst_queue_reads        2137158760                       # Number of integer instruction queue reads
system.cpu0.iq.int_inst_queue_wakeup_accesses    605846670                       # Number of integer instruction queue wakeup accesses
system.cpu0.iq.int_inst_queue_writes        673398760                       # Number of integer instruction queue writes
system.cpu0.iq.iqInstsAdded                 616317343                       # Number of instructions added to the IQ (excludes non-spec)
system.cpu0.iq.iqInstsIssued                616783561                       # Number of instructions issued
system.cpu0.iq.iqNonSpecInstsAdded            1532815                       # Number of non-speculative instructions added to the IQ
system.cpu0.iq.iqSquashedInstsExamined       55543927                       # Number of squashed instructions iterated over during squash; mainly for profiling
system.cpu0.iq.iqSquashedInstsIssued            78981                       # Number of squashed instructions issued
system.cpu0.iq.iqSquashedNonSpecRemoved           446                       # Number of squashed non-spec instructions that were removed
system.cpu0.iq.iqSquashedOperandsExamined     12385512                       # Number of squashed operands that are examined and possibly removed from graph
system.cpu0.iq.issued_per_cycle::samples    902631064                       # Number of insts issued each cycle
system.cpu0.iq.issued_per_cycle::mean        0.683317                       # Number of insts issued each cycle
system.cpu0.iq.issued_per_cycle::stdev       0.872320                       # Number of insts issued each cycle
system.cpu0.iq.issued_per_cycle::underflows            0      0.00%      0.00% # Number of insts issued each cycle
system.cpu0.iq.issued_per_cycle::0          474243215     52.54%     52.54% # Number of insts issued each cycle
system.cpu0.iq.issued_per_cycle::1          286415625     31.73%     84.27% # Number of insts issued each cycle
system.cpu0.iq.issued_per_cycle::2          103889586     11.51%     95.78% # Number of insts issued each cycle
system.cpu0.iq.issued_per_cycle::3           31325368      3.47%     99.25% # Number of insts issued each cycle
system.cpu0.iq.issued_per_cycle::4            5887552      0.65%     99.90% # Number of insts issued each cycle
system.cpu0.iq.issued_per_cycle::5             387356      0.04%     99.95% # Number of insts issued each cycle
system.cpu0.iq.issued_per_cycle::6             324838      0.04%     99.98% # Number of insts issued each cycle
system.cpu0.iq.issued_per_cycle::7              83548      0.01%     99.99% # Number of insts issued each cycle
system.cpu0.iq.issued_per_cycle::8              73976      0.01%    100.00% # Number of insts issued each cycle
system.cpu0.iq.issued_per_cycle::overflows            0      0.00%    100.00% # Number of insts issued each cycle
system.cpu0.iq.issued_per_cycle::min_value            0                       # Number of insts issued each cycle
system.cpu0.iq.issued_per_cycle::max_value            8                       # Number of insts issued each cycle
system.cpu0.iq.issued_per_cycle::total      902631064                       # Number of insts issued each cycle
system.cpu0.iq.rate                          0.635502                       # Inst issue rate
system.cpu0.iq.vec_alu_accesses                     0                       # Number of vector alu accesses
system.cpu0.iq.vec_inst_queue_reads                 0                       # Number of vector instruction queue reads
system.cpu0.iq.vec_inst_queue_wakeup_accesses            0                       # Number of vector instruction queue wakeup accesses
system.cpu0.iq.vec_inst_queue_writes                0                       # Number of vector instruction queue writes
system.cpu0.itb.accesses                            0                       # DTB accesses
system.cpu0.itb.hits                                0                       # DTB hits
system.cpu0.itb.misses                              0                       # DTB misses
system.cpu0.itb.read_accesses                       0                       # DTB read accesses
system.cpu0.itb.read_hits                           0                       # DTB read hits
system.cpu0.itb.read_misses                         0                       # DTB read misses
system.cpu0.itb.write_accesses                      0                       # DTB write accesses
system.cpu0.itb.write_hits                          0                       # DTB write hits
system.cpu0.itb.write_misses                        0                       # DTB write misses
system.cpu0.memDep0.conflictingLoads          7448142                       # Number of conflicting loads.
system.cpu0.memDep0.conflictingStores         1398237                       # Number of conflicting stores.
system.cpu0.memDep0.insertedLoads           197754580                       # Number of loads inserted to the mem dependence unit.
system.cpu0.memDep0.insertedStores           78726751                       # Number of stores inserted to the mem dependence unit.
system.cpu0.misc_regfile_reads                   1034                       # number of misc regfile reads
system.cpu0.misc_regfile_writes                    22                       # number of misc regfile writes
system.cpu0.numCycles                       970545333                       # number of cpu cycles simulated
system.cpu0.numWorkItemsCompleted                   0                       # number of work items this cpu completed
system.cpu0.numWorkItemsStarted                     0                       # number of work items this cpu started
system.cpu0.quiesceCycles                    13351227                       # Total number of cycles that CPU has spent quiesced or waiting for an interrupt
system.cpu0.rename.BlockCycles               93355155                       # Number of cycles rename is blocking
system.cpu0.rename.CommittedMaps            357820107                       # Number of HB maps that are committed
system.cpu0.rename.IQFullEvents               4137640                       # Number of times rename has blocked due to IQ full
system.cpu0.rename.IdleCycles               353657932                       # Number of cycles rename is idle
system.cpu0.rename.LQFullEvents               4658856                       # Number of times rename has blocked due to LQ full
system.cpu0.rename.ROBFullEvents                 3953                       # Number of times rename has blocked due to ROB full
system.cpu0.rename.RenameLookups            764019297                       # Number of register rename lookups that rename has made
system.cpu0.rename.RenamedInsts             626645742                       # Number of instructions processed by rename
system.cpu0.rename.RenamedOperands          402151558                       # Number of destination operands rename has renamed
system.cpu0.rename.RunCycles                431848584                       # Number of cycles rename is running
system.cpu0.rename.SQFullEvents               9589171                       # Number of times rename has blocked due to SQ full
system.cpu0.rename.SquashCycles               5611831                       # Number of cycles rename is squashing
system.cpu0.rename.UnblockCycles             18054877                       # Number of cycles rename is unblocking
system.cpu0.rename.UndoneMaps                44331447                       # Number of HB maps that are undone due to squashing
system.cpu0.rename.fp_rename_lookups               44                       # Number of floating rename lookups
system.cpu0.rename.int_rename_lookups       764019253                       # Number of integer rename lookups
system.cpu0.rename.serializeStallCycles        102685                       # count of cycles rename stalled for serializing inst
system.cpu0.rename.serializingInsts              3156                       # count of serializing insts renamed
system.cpu0.rename.skidInsts                  8006883                       # count of insts added to the skid buffer
system.cpu0.rename.tempSerializingInsts          3139                       # count of temporary serializing insts renamed
system.cpu0.rob.rob_reads                  1492075805                       # The number of ROB reads
system.cpu0.rob.rob_writes                 1246502472                       # The number of ROB writes
system.cpu0.timesIdled                       11181942                       # Number of times that the entire CPU went into an idle state and unscheduled itself
system.cpu0.workload.numSyscalls                 1001                       # Number of system calls
system.cpu1.branchPred.BTBCorrect                   0                       # Number of correct BTB predictions (this stat may not work properly.
system.cpu1.branchPred.BTBHitPct            74.500599                       # BTB Hit Percentage
system.cpu1.branchPred.BTBHits                3079223                       # Number of BTB hits
system.cpu1.branchPred.BTBLookups             4133152                       # Number of BTB lookups
system.cpu1.branchPred.RASInCorrect                 0                       # Number of incorrect RAS predictions.
system.cpu1.branchPred.condIncorrect           519836                       # Number of conditional branches incorrect
system.cpu1.branchPred.condPredicted          5429230                       # Number of conditional branches predicted
system.cpu1.branchPred.indirectHits            137470                       # Number of indirect target hits.
system.cpu1.branchPred.indirectLookups         188387                       # Number of indirect predictor lookups.
system.cpu1.branchPred.indirectMisses           50917                       # Number of indirect misses.
system.cpu1.branchPred.lookups                6117802                       # Number of BP lookups
system.cpu1.branchPred.usedRAS                      0                       # Number of times the RAS was used to get a target.
system.cpu1.branchPredindirectMispredicted         8811                       # Number of mispredicted indirect branches.
system.cpu1.commit.amos                        509179                       # Number of atomic instructions committed
system.cpu1.commit.branchMispredicts           363098                       # The number of times a branch was mispredicted
system.cpu1.commit.branches                   4419378                       # Number of branches committed
system.cpu1.commit.bw_lim_events               496662                       # number cycles where commit BW limit reached
system.cpu1.commit.commitNonSpecStalls        1528224                       # The number of times commit has been forced to stall to communicate backwards
system.cpu1.commit.commitSquashedInsts        3830900                       # The number of squashed insts skipped by commit
system.cpu1.commit.committedInsts            19243687                       # Number of instructions committed
system.cpu1.commit.committedOps              19753068                       # Number of ops (including micro ops) committed
system.cpu1.commit.committed_per_cycle::samples    112361099                       # Number of insts commited each cycle
system.cpu1.commit.committed_per_cycle::mean     0.175800                       # Number of insts commited each cycle
system.cpu1.commit.committed_per_cycle::stdev     0.827798                       # Number of insts commited each cycle
system.cpu1.commit.committed_per_cycle::underflows            0      0.00%      0.00% # Number of insts commited each cycle
system.cpu1.commit.committed_per_cycle::0    104117676     92.66%     92.66% # Number of insts commited each cycle
system.cpu1.commit.committed_per_cycle::1      4105417      3.65%     96.32% # Number of insts commited each cycle
system.cpu1.commit.committed_per_cycle::2      1408287      1.25%     97.57% # Number of insts commited each cycle
system.cpu1.commit.committed_per_cycle::3      1284223      1.14%     98.71% # Number of insts commited each cycle
system.cpu1.commit.committed_per_cycle::4       324083      0.29%     99.00% # Number of insts commited each cycle
system.cpu1.commit.committed_per_cycle::5       112525      0.10%     99.10% # Number of insts commited each cycle
system.cpu1.commit.committed_per_cycle::6       439427      0.39%     99.49% # Number of insts commited each cycle
system.cpu1.commit.committed_per_cycle::7        72799      0.06%     99.56% # Number of insts commited each cycle
system.cpu1.commit.committed_per_cycle::8       496662      0.44%    100.00% # Number of insts commited each cycle
system.cpu1.commit.committed_per_cycle::overflows            0      0.00%    100.00% # Number of insts commited each cycle
system.cpu1.commit.committed_per_cycle::min_value            0                       # Number of insts commited each cycle
system.cpu1.commit.committed_per_cycle::max_value            8                       # Number of insts commited each cycle
system.cpu1.commit.committed_per_cycle::total    112361099                       # Number of insts commited each cycle
system.cpu1.commit.fp_insts                        12                       # Number of committed floating point instructions.
system.cpu1.commit.function_calls              227445                       # Number of function calls committed.
system.cpu1.commit.int_insts                 18552610                       # Number of committed integer instructions.
system.cpu1.commit.loads                      5320198                       # Number of loads committed
system.cpu1.commit.membars                    1018430                       # Number of memory barriers committed
system.cpu1.commit.op_class_0::No_OpClass      1018430      5.16%      5.16% # Class of committed instruction
system.cpu1.commit.op_class_0::IntAlu        11645566     58.96%     64.11% # Class of committed instruction
system.cpu1.commit.op_class_0::IntMult             42      0.00%     64.11% # Class of committed instruction
system.cpu1.commit.op_class_0::IntDiv              84      0.00%     64.11% # Class of committed instruction
system.cpu1.commit.op_class_0::FloatAdd             0      0.00%     64.11% # Class of committed instruction
system.cpu1.commit.op_class_0::FloatCmp             0      0.00%     64.11% # Class of committed instruction
system.cpu1.commit.op_class_0::FloatCvt             0      0.00%     64.11% # Class of committed instruction
system.cpu1.commit.op_class_0::FloatMult            0      0.00%     64.11% # Class of committed instruction
system.cpu1.commit.op_class_0::FloatMultAcc            0      0.00%     64.11% # Class of committed instruction
system.cpu1.commit.op_class_0::FloatDiv             0      0.00%     64.11% # Class of committed instruction
system.cpu1.commit.op_class_0::FloatMisc            0      0.00%     64.11% # Class of committed instruction
system.cpu1.commit.op_class_0::FloatSqrt            0      0.00%     64.11% # Class of committed instruction
system.cpu1.commit.op_class_0::SimdAdd              0      0.00%     64.11% # Class of committed instruction
system.cpu1.commit.op_class_0::SimdAddAcc            0      0.00%     64.11% # Class of committed instruction
system.cpu1.commit.op_class_0::SimdAlu              0      0.00%     64.11% # Class of committed instruction
system.cpu1.commit.op_class_0::SimdCmp              0      0.00%     64.11% # Class of committed instruction
system.cpu1.commit.op_class_0::SimdCvt              0      0.00%     64.11% # Class of committed instruction
system.cpu1.commit.op_class_0::SimdMisc             0      0.00%     64.11% # Class of committed instruction
system.cpu1.commit.op_class_0::SimdMult             0      0.00%     64.11% # Class of committed instruction
system.cpu1.commit.op_class_0::SimdMultAcc            0      0.00%     64.11% # Class of committed instruction
system.cpu1.commit.op_class_0::SimdShift            0      0.00%     64.11% # Class of committed instruction
system.cpu1.commit.op_class_0::SimdShiftAcc            0      0.00%     64.11% # Class of committed instruction
system.cpu1.commit.op_class_0::SimdDiv              0      0.00%     64.11% # Class of committed instruction
system.cpu1.commit.op_class_0::SimdSqrt             0      0.00%     64.11% # Class of committed instruction
system.cpu1.commit.op_class_0::SimdFloatAdd            0      0.00%     64.11% # Class of committed instruction
system.cpu1.commit.op_class_0::SimdFloatAlu            0      0.00%     64.11% # Class of committed instruction
system.cpu1.commit.op_class_0::SimdFloatCmp            0      0.00%     64.11% # Class of committed instruction
system.cpu1.commit.op_class_0::SimdFloatCvt            0      0.00%     64.11% # Class of committed instruction
system.cpu1.commit.op_class_0::SimdFloatDiv            0      0.00%     64.11% # Class of committed instruction
system.cpu1.commit.op_class_0::SimdFloatMisc            0      0.00%     64.11% # Class of committed instruction
system.cpu1.commit.op_class_0::SimdFloatMult            0      0.00%     64.11% # Class of committed instruction
system.cpu1.commit.op_class_0::SimdFloatMultAcc            0      0.00%     64.11% # Class of committed instruction
system.cpu1.commit.op_class_0::SimdFloatSqrt            0      0.00%     64.11% # Class of committed instruction
system.cpu1.commit.op_class_0::SimdReduceAdd            0      0.00%     64.11% # Class of committed instruction
system.cpu1.commit.op_class_0::SimdReduceAlu            0      0.00%     64.11% # Class of committed instruction
system.cpu1.commit.op_class_0::SimdReduceCmp            0      0.00%     64.11% # Class of committed instruction
system.cpu1.commit.op_class_0::SimdFloatReduceAdd            0      0.00%     64.11% # Class of committed instruction
system.cpu1.commit.op_class_0::SimdFloatReduceCmp            0      0.00%     64.11% # Class of committed instruction
system.cpu1.commit.op_class_0::SimdAes              0      0.00%     64.11% # Class of committed instruction
system.cpu1.commit.op_class_0::SimdAesMix            0      0.00%     64.11% # Class of committed instruction
system.cpu1.commit.op_class_0::SimdSha1Hash            0      0.00%     64.11% # Class of committed instruction
system.cpu1.commit.op_class_0::SimdSha1Hash2            0      0.00%     64.11% # Class of committed instruction
system.cpu1.commit.op_class_0::SimdSha256Hash            0      0.00%     64.11% # Class of committed instruction
system.cpu1.commit.op_class_0::SimdSha256Hash2            0      0.00%     64.11% # Class of committed instruction
system.cpu1.commit.op_class_0::SimdShaSigma2            0      0.00%     64.11% # Class of committed instruction
system.cpu1.commit.op_class_0::SimdShaSigma3            0      0.00%     64.11% # Class of committed instruction
system.cpu1.commit.op_class_0::SimdPredAlu            0      0.00%     64.11% # Class of committed instruction
system.cpu1.commit.op_class_0::MemRead        5829377     29.51%     93.62% # Class of committed instruction
system.cpu1.commit.op_class_0::MemWrite       1259557      6.38%    100.00% # Class of committed instruction
system.cpu1.commit.op_class_0::FloatMemRead            0      0.00%    100.00% # Class of committed instruction
system.cpu1.commit.op_class_0::FloatMemWrite           12      0.00%    100.00% # Class of committed instruction
system.cpu1.commit.op_class_0::IprAccess            0      0.00%    100.00% # Class of committed instruction
system.cpu1.commit.op_class_0::InstPrefetch            0      0.00%    100.00% # Class of committed instruction
system.cpu1.commit.op_class_0::total         19753068                       # Class of committed instruction
system.cpu1.commit.refs                       7088946                       # Number of memory references committed
system.cpu1.commit.swp_count                        0                       # Number of s/w prefetches committed
system.cpu1.commit.vec_insts                        0                       # Number of committed Vector instructions.
system.cpu1.committedInsts                   19243687                       # Number of Instructions Simulated
system.cpu1.committedOps                     19753068                       # Number of Ops (including micro ops) Simulated
system.cpu1.cpi                              5.892856                       # CPI: Cycles Per Instruction
system.cpu1.cpi_total                        5.892856                       # CPI: Total CPI of All Threads
system.cpu1.decode.BlockedCycles             97278505                       # Number of cycles decode is blocked
system.cpu1.decode.BranchMispred               162131                       # Number of times decode detected a branch misprediction
system.cpu1.decode.BranchResolved             2870358                       # Number of times decode resolved a branch
system.cpu1.decode.DecodedInsts              25054418                       # Number of instructions handled by decode
system.cpu1.decode.IdleCycles                 4266556                       # Number of cycles decode is idle
system.cpu1.decode.RunCycles                 10124077                       # Number of cycles decode is running
system.cpu1.decode.SquashCycles                363569                       # Number of cycles decode is squashing
system.cpu1.decode.SquashedInsts               325727                       # Number of squashed instructions handled by decode
system.cpu1.decode.UnblockCycles              1050412                       # Number of cycles decode is unblocking
system.cpu1.dtb.accesses                            0                       # DTB accesses
system.cpu1.dtb.hits                                0                       # DTB hits
system.cpu1.dtb.misses                              0                       # DTB misses
system.cpu1.dtb.read_accesses                       0                       # DTB read accesses
system.cpu1.dtb.read_hits                           0                       # DTB read hits
system.cpu1.dtb.read_misses                         0                       # DTB read misses
system.cpu1.dtb.write_accesses                      0                       # DTB write accesses
system.cpu1.dtb.write_hits                          0                       # DTB write hits
system.cpu1.dtb.write_misses                        0                       # DTB write misses
system.cpu1.fetch.Branches                    6117802                       # Number of branches that fetch encountered
system.cpu1.fetch.CacheLines                  3997670                       # Number of cache lines fetched
system.cpu1.fetch.Cycles                    108030500                       # Number of cycles fetch has run and was not squashing or blocked
system.cpu1.fetch.IcacheSquashes                75203                       # Number of outstanding Icache misses that were squashed
system.cpu1.fetch.IcacheWaitRetryStallCycles            1                       # Number of stall cycles due to full MSHR
system.cpu1.fetch.Insts                      27249663                       # Number of instructions fetch has processed
system.cpu1.fetch.MiscStallCycles                   2                       # Number of cycles fetch has spent waiting on interrupts, or bad addresses, or out of MSHRs
system.cpu1.fetch.SquashCycles                1040614                       # Number of cycles fetch has spent squashing
system.cpu1.fetch.branchRate                 0.053949                       # Number of branch fetches per cycle
system.cpu1.fetch.icacheStallCycles           4532309                       # Number of cycles fetch is stalled on an Icache miss
system.cpu1.fetch.predictedBranches           3216693                       # Number of branches that fetch has predicted taken
system.cpu1.fetch.rate                       0.240296                       # Number of inst fetches per cycle
system.cpu1.fetch.rateDist::samples         113083119                       # Number of instructions fetched each cycle (Total)
system.cpu1.fetch.rateDist::mean             0.247343                       # Number of instructions fetched each cycle (Total)
system.cpu1.fetch.rateDist::stdev            0.706238                       # Number of instructions fetched each cycle (Total)
system.cpu1.fetch.rateDist::underflows              0      0.00%      0.00% # Number of instructions fetched each cycle (Total)
system.cpu1.fetch.rateDist::0                96093920     84.98%     84.98% # Number of instructions fetched each cycle (Total)
system.cpu1.fetch.rateDist::1                10233914      9.05%     94.03% # Number of instructions fetched each cycle (Total)
system.cpu1.fetch.rateDist::2                 4090702      3.62%     97.64% # Number of instructions fetched each cycle (Total)
system.cpu1.fetch.rateDist::3                 1749535      1.55%     99.19% # Number of instructions fetched each cycle (Total)
system.cpu1.fetch.rateDist::4                  529438      0.47%     99.66% # Number of instructions fetched each cycle (Total)
system.cpu1.fetch.rateDist::5                  125456      0.11%     99.77% # Number of instructions fetched each cycle (Total)
system.cpu1.fetch.rateDist::6                  259950      0.23%    100.00% # Number of instructions fetched each cycle (Total)
system.cpu1.fetch.rateDist::7                      13      0.00%    100.00% # Number of instructions fetched each cycle (Total)
system.cpu1.fetch.rateDist::8                     191      0.00%    100.00% # Number of instructions fetched each cycle (Total)
system.cpu1.fetch.rateDist::overflows               0      0.00%    100.00% # Number of instructions fetched each cycle (Total)
system.cpu1.fetch.rateDist::min_value               0                       # Number of instructions fetched each cycle (Total)
system.cpu1.fetch.rateDist::max_value               8                       # Number of instructions fetched each cycle (Total)
system.cpu1.fetch.rateDist::total           113083119                       # Number of instructions fetched each cycle (Total)
system.cpu1.fp_regfile_reads                       12                       # number of floating regfile reads
system.cpu1.idleCycles                         317152                       # Total number of cycles that the CPU has spent unscheduled due to idling
system.cpu1.iew.branchMispredicts              382614                       # Number of branch mispredicts detected at execute
system.cpu1.iew.exec_branches                 4920024                       # Number of branches executed
system.cpu1.iew.exec_nop                            0                       # number of nop insts executed
system.cpu1.iew.exec_rate                    0.191496                       # Inst execution rate
system.cpu1.iew.exec_refs                     7744908                       # number of memory reference insts executed
system.cpu1.iew.exec_stores                   1850455                       # Number of stores executed
system.cpu1.iew.exec_swp                            0                       # number of swp insts executed
system.cpu1.iew.iewBlockCycles               83314802                       # Number of cycles IEW is blocking
system.cpu1.iew.iewDispLoadInsts              6396924                       # Number of dispatched load instructions
system.cpu1.iew.iewDispNonSpecInsts            573641                       # Number of dispatched non-speculative instructions
system.cpu1.iew.iewDispSquashedInsts           449112                       # Number of squashed instructions skipped by dispatch
system.cpu1.iew.iewDispStoreInsts             2052573                       # Number of dispatched store instructions
system.cpu1.iew.iewDispatchedInsts           23578734                       # Number of instructions dispatched to IQ
system.cpu1.iew.iewExecLoadInsts              5894453                       # Number of load instructions executed
system.cpu1.iew.iewExecSquashedInsts           279375                       # Number of squashed instructions skipped in execute
system.cpu1.iew.iewExecutedInsts             21715689                       # Number of executed instructions
system.cpu1.iew.iewIQFullEvents                507899                       # Number of times the IQ has become full, causing a stall
system.cpu1.iew.iewIdleCycles                       0                       # Number of cycles IEW is idle
system.cpu1.iew.iewLSQFullEvents               800918                       # Number of times the LSQ has become full, causing a stall
system.cpu1.iew.iewSquashCycles                363569                       # Number of cycles IEW is squashing
system.cpu1.iew.iewUnblockCycles              1863306                       # Number of cycles IEW is unblocking
system.cpu1.iew.lsq.thread0.blockedLoads            0                       # Number of blocked loads due to partial load-store forwarding
system.cpu1.iew.lsq.thread0.cacheBlocked        20009                       # Number of times an access to memory failed due to the cache being blocked
system.cpu1.iew.lsq.thread0.forwLoads          149013                       # Number of loads that had data forwarded from stores
system.cpu1.iew.lsq.thread0.ignoredResponses         6825                       # Number of memory responses ignored because the instruction is squashed
system.cpu1.iew.lsq.thread0.invAddrLoads            0                       # Number of loads ignored due to an invalid address
system.cpu1.iew.lsq.thread0.invAddrSwpfs            0                       # Number of software prefetches ignored due to an invalid address
system.cpu1.iew.lsq.thread0.memOrderViolation          515                       # Number of memory ordering violations
system.cpu1.iew.lsq.thread0.rescheduledLoads         1224                       # Number of loads that were rescheduled
system.cpu1.iew.lsq.thread0.squashedLoads      1076726                       # Number of loads squashed
system.cpu1.iew.lsq.thread0.squashedStores       283825                       # Number of stores squashed
system.cpu1.iew.memOrderViolationEvents           515                       # Number of memory order violations
system.cpu1.iew.predictedNotTakenIncorrect       144856                       # Number of branches that were predicted not taken incorrectly
system.cpu1.iew.predictedTakenIncorrect        237758                       # Number of branches that were predicted taken incorrectly
system.cpu1.iew.wb_consumers                 12344738                       # num instructions consuming a value
system.cpu1.iew.wb_count                     21441527                       # cumulative count of insts written-back
system.cpu1.iew.wb_fanout                    0.842776                       # average fanout of values written-back
system.cpu1.iew.wb_producers                 10403853                       # num instructions producing a value
system.cpu1.iew.wb_rate                      0.189078                       # insts written-back per cycle
system.cpu1.iew.wb_sent                      21450148                       # cumulative count of insts sent to commit
system.cpu1.int_regfile_reads                27140356                       # number of integer regfile reads
system.cpu1.int_regfile_writes               14298309                       # number of integer regfile writes
system.cpu1.ipc                              0.169697                       # IPC: Instructions Per Cycle
system.cpu1.ipc_total                        0.169697                       # IPC: Total IPC of All Threads
system.cpu1.iq.FU_type_0::No_OpClass          1018637      4.63%      4.63% # Type of FU issued
system.cpu1.iq.FU_type_0::IntAlu             13145600     59.77%     64.40% # Type of FU issued
system.cpu1.iq.FU_type_0::IntMult                  47      0.00%     64.40% # Type of FU issued
system.cpu1.iq.FU_type_0::IntDiv                   86      0.00%     64.40% # Type of FU issued
system.cpu1.iq.FU_type_0::FloatAdd                  0      0.00%     64.40% # Type of FU issued
system.cpu1.iq.FU_type_0::FloatCmp                  0      0.00%     64.40% # Type of FU issued
system.cpu1.iq.FU_type_0::FloatCvt                  0      0.00%     64.40% # Type of FU issued
system.cpu1.iq.FU_type_0::FloatMult                 0      0.00%     64.40% # Type of FU issued
system.cpu1.iq.FU_type_0::FloatMultAcc              0      0.00%     64.40% # Type of FU issued
system.cpu1.iq.FU_type_0::FloatDiv                  0      0.00%     64.40% # Type of FU issued
system.cpu1.iq.FU_type_0::FloatMisc                 0      0.00%     64.40% # Type of FU issued
system.cpu1.iq.FU_type_0::FloatSqrt                 0      0.00%     64.40% # Type of FU issued
system.cpu1.iq.FU_type_0::SimdAdd                   0      0.00%     64.40% # Type of FU issued
system.cpu1.iq.FU_type_0::SimdAddAcc                0      0.00%     64.40% # Type of FU issued
system.cpu1.iq.FU_type_0::SimdAlu                   0      0.00%     64.40% # Type of FU issued
system.cpu1.iq.FU_type_0::SimdCmp                   0      0.00%     64.40% # Type of FU issued
system.cpu1.iq.FU_type_0::SimdCvt                   0      0.00%     64.40% # Type of FU issued
system.cpu1.iq.FU_type_0::SimdMisc                  0      0.00%     64.40% # Type of FU issued
system.cpu1.iq.FU_type_0::SimdMult                  0      0.00%     64.40% # Type of FU issued
system.cpu1.iq.FU_type_0::SimdMultAcc               0      0.00%     64.40% # Type of FU issued
system.cpu1.iq.FU_type_0::SimdShift                 0      0.00%     64.40% # Type of FU issued
system.cpu1.iq.FU_type_0::SimdShiftAcc              0      0.00%     64.40% # Type of FU issued
system.cpu1.iq.FU_type_0::SimdDiv                   0      0.00%     64.40% # Type of FU issued
system.cpu1.iq.FU_type_0::SimdSqrt                  0      0.00%     64.40% # Type of FU issued
system.cpu1.iq.FU_type_0::SimdFloatAdd              0      0.00%     64.40% # Type of FU issued
system.cpu1.iq.FU_type_0::SimdFloatAlu              0      0.00%     64.40% # Type of FU issued
system.cpu1.iq.FU_type_0::SimdFloatCmp              0      0.00%     64.40% # Type of FU issued
system.cpu1.iq.FU_type_0::SimdFloatCvt              0      0.00%     64.40% # Type of FU issued
system.cpu1.iq.FU_type_0::SimdFloatDiv              0      0.00%     64.40% # Type of FU issued
system.cpu1.iq.FU_type_0::SimdFloatMisc             0      0.00%     64.40% # Type of FU issued
system.cpu1.iq.FU_type_0::SimdFloatMult             0      0.00%     64.40% # Type of FU issued
system.cpu1.iq.FU_type_0::SimdFloatMultAcc            0      0.00%     64.40% # Type of FU issued
system.cpu1.iq.FU_type_0::SimdFloatSqrt             0      0.00%     64.40% # Type of FU issued
system.cpu1.iq.FU_type_0::SimdReduceAdd             0      0.00%     64.40% # Type of FU issued
system.cpu1.iq.FU_type_0::SimdReduceAlu             0      0.00%     64.40% # Type of FU issued
system.cpu1.iq.FU_type_0::SimdReduceCmp             0      0.00%     64.40% # Type of FU issued
system.cpu1.iq.FU_type_0::SimdFloatReduceAdd            0      0.00%     64.40% # Type of FU issued
system.cpu1.iq.FU_type_0::SimdFloatReduceCmp            0      0.00%     64.40% # Type of FU issued
system.cpu1.iq.FU_type_0::SimdAes                   0      0.00%     64.40% # Type of FU issued
system.cpu1.iq.FU_type_0::SimdAesMix                0      0.00%     64.40% # Type of FU issued
system.cpu1.iq.FU_type_0::SimdSha1Hash              0      0.00%     64.40% # Type of FU issued
system.cpu1.iq.FU_type_0::SimdSha1Hash2             0      0.00%     64.40% # Type of FU issued
system.cpu1.iq.FU_type_0::SimdSha256Hash            0      0.00%     64.40% # Type of FU issued
system.cpu1.iq.FU_type_0::SimdSha256Hash2            0      0.00%     64.40% # Type of FU issued
system.cpu1.iq.FU_type_0::SimdShaSigma2             0      0.00%     64.40% # Type of FU issued
system.cpu1.iq.FU_type_0::SimdShaSigma3             0      0.00%     64.40% # Type of FU issued
system.cpu1.iq.FU_type_0::SimdPredAlu               0      0.00%     64.40% # Type of FU issued
system.cpu1.iq.FU_type_0::MemRead             6473458     29.43%     93.83% # Type of FU issued
system.cpu1.iq.FU_type_0::MemWrite            1357224      6.17%    100.00% # Type of FU issued
system.cpu1.iq.FU_type_0::FloatMemRead              0      0.00%    100.00% # Type of FU issued
system.cpu1.iq.FU_type_0::FloatMemWrite            12      0.00%    100.00% # Type of FU issued
system.cpu1.iq.FU_type_0::IprAccess                 0      0.00%    100.00% # Type of FU issued
system.cpu1.iq.FU_type_0::InstPrefetch              0      0.00%    100.00% # Type of FU issued
system.cpu1.iq.FU_type_0::total              21995064                       # Type of FU issued
system.cpu1.iq.fp_alu_accesses                     16                       # Number of floating point alu accesses
system.cpu1.iq.fp_inst_queue_reads                 28                       # Number of floating instruction queue reads
system.cpu1.iq.fp_inst_queue_wakeup_accesses           12                       # Number of floating instruction queue wakeup accesses
system.cpu1.iq.fp_inst_queue_writes                12                       # Number of floating instruction queue writes
system.cpu1.iq.fu_busy_cnt                     597041                       # FU busy when requested
system.cpu1.iq.fu_busy_rate                  0.027144                       # FU busy rate (busy events/executed inst)
system.cpu1.iq.fu_full::No_OpClass                  0      0.00%      0.00% # attempts to use FU when none available
system.cpu1.iq.fu_full::IntAlu                 121872     20.41%     20.41% # attempts to use FU when none available
system.cpu1.iq.fu_full::IntMult                     0      0.00%     20.41% # attempts to use FU when none available
system.cpu1.iq.fu_full::IntDiv                      0      0.00%     20.41% # attempts to use FU when none available
system.cpu1.iq.fu_full::FloatAdd                    0      0.00%     20.41% # attempts to use FU when none available
system.cpu1.iq.fu_full::FloatCmp                    0      0.00%     20.41% # attempts to use FU when none available
system.cpu1.iq.fu_full::FloatCvt                    0      0.00%     20.41% # attempts to use FU when none available
system.cpu1.iq.fu_full::FloatMult                   0      0.00%     20.41% # attempts to use FU when none available
system.cpu1.iq.fu_full::FloatMultAcc                0      0.00%     20.41% # attempts to use FU when none available
system.cpu1.iq.fu_full::FloatDiv                    0      0.00%     20.41% # attempts to use FU when none available
system.cpu1.iq.fu_full::FloatMisc                   0      0.00%     20.41% # attempts to use FU when none available
system.cpu1.iq.fu_full::FloatSqrt                   0      0.00%     20.41% # attempts to use FU when none available
system.cpu1.iq.fu_full::SimdAdd                     0      0.00%     20.41% # attempts to use FU when none available
system.cpu1.iq.fu_full::SimdAddAcc                  0      0.00%     20.41% # attempts to use FU when none available
system.cpu1.iq.fu_full::SimdAlu                     0      0.00%     20.41% # attempts to use FU when none available
system.cpu1.iq.fu_full::SimdCmp                     0      0.00%     20.41% # attempts to use FU when none available
system.cpu1.iq.fu_full::SimdCvt                     0      0.00%     20.41% # attempts to use FU when none available
system.cpu1.iq.fu_full::SimdMisc                    0      0.00%     20.41% # attempts to use FU when none available
system.cpu1.iq.fu_full::SimdMult                    0      0.00%     20.41% # attempts to use FU when none available
system.cpu1.iq.fu_full::SimdMultAcc                 0      0.00%     20.41% # attempts to use FU when none available
system.cpu1.iq.fu_full::SimdShift                   0      0.00%     20.41% # attempts to use FU when none available
system.cpu1.iq.fu_full::SimdShiftAcc                0      0.00%     20.41% # attempts to use FU when none available
system.cpu1.iq.fu_full::SimdDiv                     0      0.00%     20.41% # attempts to use FU when none available
system.cpu1.iq.fu_full::SimdSqrt                    0      0.00%     20.41% # attempts to use FU when none available
system.cpu1.iq.fu_full::SimdFloatAdd                0      0.00%     20.41% # attempts to use FU when none available
system.cpu1.iq.fu_full::SimdFloatAlu                0      0.00%     20.41% # attempts to use FU when none available
system.cpu1.iq.fu_full::SimdFloatCmp                0      0.00%     20.41% # attempts to use FU when none available
system.cpu1.iq.fu_full::SimdFloatCvt                0      0.00%     20.41% # attempts to use FU when none available
system.cpu1.iq.fu_full::SimdFloatDiv                0      0.00%     20.41% # attempts to use FU when none available
system.cpu1.iq.fu_full::SimdFloatMisc               0      0.00%     20.41% # attempts to use FU when none available
system.cpu1.iq.fu_full::SimdFloatMult               0      0.00%     20.41% # attempts to use FU when none available
system.cpu1.iq.fu_full::SimdFloatMultAcc            0      0.00%     20.41% # attempts to use FU when none available
system.cpu1.iq.fu_full::SimdFloatSqrt               0      0.00%     20.41% # attempts to use FU when none available
system.cpu1.iq.fu_full::SimdReduceAdd               0      0.00%     20.41% # attempts to use FU when none available
system.cpu1.iq.fu_full::SimdReduceAlu               0      0.00%     20.41% # attempts to use FU when none available
system.cpu1.iq.fu_full::SimdReduceCmp               0      0.00%     20.41% # attempts to use FU when none available
system.cpu1.iq.fu_full::SimdFloatReduceAdd            0      0.00%     20.41% # attempts to use FU when none available
system.cpu1.iq.fu_full::SimdFloatReduceCmp            0      0.00%     20.41% # attempts to use FU when none available
system.cpu1.iq.fu_full::SimdAes                     0      0.00%     20.41% # attempts to use FU when none available
system.cpu1.iq.fu_full::SimdAesMix                  0      0.00%     20.41% # attempts to use FU when none available
system.cpu1.iq.fu_full::SimdSha1Hash                0      0.00%     20.41% # attempts to use FU when none available
system.cpu1.iq.fu_full::SimdSha1Hash2               0      0.00%     20.41% # attempts to use FU when none available
system.cpu1.iq.fu_full::SimdSha256Hash              0      0.00%     20.41% # attempts to use FU when none available
system.cpu1.iq.fu_full::SimdSha256Hash2             0      0.00%     20.41% # attempts to use FU when none available
system.cpu1.iq.fu_full::SimdShaSigma2               0      0.00%     20.41% # attempts to use FU when none available
system.cpu1.iq.fu_full::SimdShaSigma3               0      0.00%     20.41% # attempts to use FU when none available
system.cpu1.iq.fu_full::SimdPredAlu                 0      0.00%     20.41% # attempts to use FU when none available
system.cpu1.iq.fu_full::MemRead                421440     70.59%     91.00% # attempts to use FU when none available
[...]
system.cpu1.dcache.WriteReq_mshr_miss_latency::.cpu1.data   2674924457                       # number of WriteReq MSHR miss cycles
system.cpu1.dcache.WriteReq_mshr_miss_latency::total   2674924457                       # number of WriteReq MSHR miss cycles
system.cpu1.dcache.WriteReq_mshr_miss_rate::.cpu1.data     0.040228                       # mshr miss rate for WriteReq accesses
system.cpu1.dcache.WriteReq_mshr_miss_rate::total     0.040228                       # mshr miss rate for WriteReq accesses
system.cpu1.dcache.WriteReq_avg_mshr_miss_latency::.cpu1.data 92634.868299                       # average WriteReq mshr miss latency
system.cpu1.dcache.WriteReq_avg_mshr_miss_latency::total 92634.868299                       # average WriteReq mshr miss latency
system.cpu1.dcache.LoadLockedReq_hits::.cpu1.data        30376                       # number of LoadLockedReq hits
system.cpu1.dcache.LoadLockedReq_hits::total        30376                       # number of LoadLockedReq hits
system.cpu1.dcache.LoadLockedReq_misses::.cpu1.data         1571                       # number of LoadLockedReq misses
system.cpu1.dcache.LoadLockedReq_misses::total         1571                       # number of LoadLockedReq misses
system.cpu1.dcache.LoadLockedReq_miss_latency::.cpu1.data     42925000                       # number of LoadLockedReq miss cycles
system.cpu1.dcache.LoadLockedReq_miss_latency::total     42925000                       # number of LoadLockedReq miss cycles
system.cpu1.dcache.LoadLockedReq_accesses::.cpu1.data        31947                       # number of LoadLockedReq accesses(hits+misses)
system.cpu1.dcache.LoadLockedReq_accesses::total        31947                       # number of LoadLockedReq accesses(hits+misses)
system.cpu1.dcache.LoadLockedReq_miss_rate::.cpu1.data     0.049175                       # miss rate for LoadLockedReq accesses
system.cpu1.dcache.LoadLockedReq_miss_rate::total     0.049175                       # miss rate for LoadLockedReq accesses
system.cpu1.dcache.LoadLockedReq_avg_miss_latency::.cpu1.data 27323.360917                       # average LoadLockedReq miss latency
system.cpu1.dcache.LoadLockedReq_avg_miss_latency::total 27323.360917                       # average LoadLockedReq miss latency
system.cpu1.dcache.LoadLockedReq_mshr_hits::.cpu1.data          435                       # number of LoadLockedReq MSHR hits
system.cpu1.dcache.LoadLockedReq_mshr_hits::total          435                       # number of LoadLockedReq MSHR hits
system.cpu1.dcache.LoadLockedReq_mshr_misses::.cpu1.data         1136                       # number of LoadLockedReq MSHR misses
system.cpu1.dcache.LoadLockedReq_mshr_misses::total         1136                       # number of LoadLockedReq MSHR misses
system.cpu1.dcache.LoadLockedReq_mshr_miss_latency::.cpu1.data     18158000                       # number of LoadLockedReq MSHR miss cycles
system.cpu1.dcache.LoadLockedReq_mshr_miss_latency::total     18158000                       # number of LoadLockedReq MSHR miss cycles
system.cpu1.dcache.LoadLockedReq_mshr_miss_rate::.cpu1.data     0.035559                       # mshr miss rate for LoadLockedReq accesses
system.cpu1.dcache.LoadLockedReq_mshr_miss_rate::total     0.035559                       # mshr miss rate for LoadLockedReq accesses
system.cpu1.dcache.LoadLockedReq_avg_mshr_miss_latency::.cpu1.data 15984.154930                       # average LoadLockedReq mshr miss latency
system.cpu1.dcache.LoadLockedReq_avg_mshr_miss_latency::total 15984.154930                       # average LoadLockedReq mshr miss latency
system.cpu1.dcache.StoreCondReq_hits::.cpu1.data        24800                       # number of StoreCondReq hits
system.cpu1.dcache.StoreCondReq_hits::total        24800                       # number of StoreCondReq hits
system.cpu1.dcache.StoreCondReq_misses::.cpu1.data         5784                       # number of StoreCondReq misses
system.cpu1.dcache.StoreCondReq_misses::total         5784                       # number of StoreCondReq misses
system.cpu1.dcache.StoreCondReq_miss_latency::.cpu1.data     47207500                       # number of StoreCondReq miss cycles
system.cpu1.dcache.StoreCondReq_miss_latency::total     47207500                       # number of StoreCondReq miss cycles
system.cpu1.dcache.StoreCondReq_accesses::.cpu1.data        30584                       # number of StoreCondReq accesses(hits+misses)
system.cpu1.dcache.StoreCondReq_accesses::total        30584                       # number of StoreCondReq accesses(hits+misses)
system.cpu1.dcache.StoreCondReq_miss_rate::.cpu1.data     0.189118                       # miss rate for StoreCondReq accesses
system.cpu1.dcache.StoreCondReq_miss_rate::total     0.189118                       # miss rate for StoreCondReq accesses
system.cpu1.dcache.StoreCondReq_avg_miss_latency::.cpu1.data  8161.739281                       # average StoreCondReq miss latency
system.cpu1.dcache.StoreCondReq_avg_miss_latency::total  8161.739281                       # average StoreCondReq miss latency
system.cpu1.dcache.StoreCondReq_mshr_misses::.cpu1.data         5618                       # number of StoreCondReq MSHR misses
system.cpu1.dcache.StoreCondReq_mshr_misses::total         5618                       # number of StoreCondReq MSHR misses
system.cpu1.dcache.StoreCondReq_mshr_miss_latency::.cpu1.data     41719500                       # number of StoreCondReq MSHR miss cycles
system.cpu1.dcache.StoreCondReq_mshr_miss_latency::total     41719500                       # number of StoreCondReq MSHR miss cycles
system.cpu1.dcache.StoreCondReq_mshr_miss_rate::.cpu1.data     0.183691                       # mshr miss rate for StoreCondReq accesses
system.cpu1.dcache.StoreCondReq_mshr_miss_rate::total     0.183691                       # mshr miss rate for StoreCondReq accesses
system.cpu1.dcache.StoreCondReq_avg_mshr_miss_latency::.cpu1.data  7426.041296                       # average StoreCondReq mshr miss latency
system.cpu1.dcache.StoreCondReq_avg_mshr_miss_latency::total  7426.041296                       # average StoreCondReq mshr miss latency
system.cpu1.dcache.StoreCondFailReq_miss_latency::.cpu1.data      2940500                       # number of StoreCondFailReq miss cycles
system.cpu1.dcache.StoreCondFailReq_miss_latency::total      2940500                       # number of StoreCondFailReq miss cycles
system.cpu1.dcache.StoreCondFailReq_avg_miss_latency::.cpu1.data          inf                       # average StoreCondFailReq miss latency
system.cpu1.dcache.StoreCondFailReq_avg_miss_latency::total          inf                       # average StoreCondFailReq miss latency
system.cpu1.dcache.StoreCondFailReq_mshr_miss_latency::.cpu1.data      2810500                       # number of StoreCondFailReq MSHR miss cycles
system.cpu1.dcache.StoreCondFailReq_mshr_miss_latency::total      2810500                       # number of StoreCondFailReq MSHR miss cycles
system.cpu1.dcache.StoreCondFailReq_avg_mshr_miss_latency::.cpu1.data          inf                       # average StoreCondFailReq mshr miss latency
system.cpu1.dcache.StoreCondFailReq_avg_mshr_miss_latency::total          inf                       # average StoreCondFailReq mshr miss latency
system.cpu1.dcache.SwapReq_hits::.cpu1.data         1081                       # number of SwapReq hits
system.cpu1.dcache.SwapReq_hits::total           1081                       # number of SwapReq hits
system.cpu1.dcache.SwapReq_misses::.cpu1.data         2841                       # number of SwapReq misses
system.cpu1.dcache.SwapReq_misses::total         2841                       # number of SwapReq misses
system.cpu1.dcache.SwapReq_miss_latency::.cpu1.data     49779000                       # number of SwapReq miss cycles
system.cpu1.dcache.SwapReq_miss_latency::total     49779000                       # number of SwapReq miss cycles
system.cpu1.dcache.SwapReq_accesses::.cpu1.data         3922                       # number of SwapReq accesses(hits+misses)
system.cpu1.dcache.SwapReq_accesses::total         3922                       # number of SwapReq accesses(hits+misses)
system.cpu1.dcache.SwapReq_miss_rate::.cpu1.data     0.724375                       # miss rate for SwapReq accesses
system.cpu1.dcache.SwapReq_miss_rate::total     0.724375                       # miss rate for SwapReq accesses
system.cpu1.dcache.SwapReq_avg_miss_latency::.cpu1.data 17521.647307                       # average SwapReq miss latency
system.cpu1.dcache.SwapReq_avg_miss_latency::total 17521.647307                       # average SwapReq miss latency
system.cpu1.dcache.SwapReq_mshr_misses::.cpu1.data         2841                       # number of SwapReq MSHR misses
system.cpu1.dcache.SwapReq_mshr_misses::total         2841                       # number of SwapReq MSHR misses
system.cpu1.dcache.SwapReq_mshr_miss_latency::.cpu1.data     46938000                       # number of SwapReq MSHR miss cycles
system.cpu1.dcache.SwapReq_mshr_miss_latency::total     46938000                       # number of SwapReq MSHR miss cycles
system.cpu1.dcache.SwapReq_mshr_miss_rate::.cpu1.data     0.724375                       # mshr miss rate for SwapReq accesses
system.cpu1.dcache.SwapReq_mshr_miss_rate::total     0.724375                       # mshr miss rate for SwapReq accesses
system.cpu1.dcache.SwapReq_avg_mshr_miss_latency::.cpu1.data 16521.647307                       # average SwapReq mshr miss latency
system.cpu1.dcache.SwapReq_avg_mshr_miss_latency::total 16521.647307                       # average SwapReq mshr miss latency
system.cpu1.dcache.tags.pwrStateResidencyTicks::UNDEFINED  42114676500                       # Cumulative time (in ticks) in various power states
system.cpu1.dcache.tags.tagsinuse           30.922800                       # Cycle average of tags in use
system.cpu1.dcache.tags.total_refs            9183016                       # Total number of references to valid blocks.
system.cpu1.dcache.tags.sampled_refs           636874                       # Sample count of references to valid blocks.
system.cpu1.dcache.tags.avg_refs            14.418890                       # Average number of references to valid blocks.
system.cpu1.dcache.tags.warmup_cycle                0                       # Cycle when the warmup percentage was hit.
system.cpu1.dcache.tags.occ_blocks::.cpu1.data    30.922800                       # Average occupied blocks per requestor
system.cpu1.dcache.tags.occ_percent::.cpu1.data     0.966337                       # Average percentage of cache occupancy
system.cpu1.dcache.tags.occ_percent::total     0.966337                       # Average percentage of cache occupancy
system.cpu1.dcache.tags.occ_task_id_blocks::1024           29                       # Occupied blocks per task id
system.cpu1.dcache.tags.age_task_id_blocks_1024::1           29                       # Occupied blocks per task id
system.cpu1.dcache.tags.occ_task_id_percent::1024     0.906250                       # Percentage of cache occupancy per task id
system.cpu1.dcache.tags.tag_accesses         24087528                       # Number of tag accesses
system.cpu1.dcache.tags.data_accesses        24087528                       # Number of data accesses
system.cpu_clk_domain.clock                       500                       # Clock period in ticks
system.tol2bus.pwrStateResidencyTicks::UNDEFINED  42114676500                       # Cumulative time (in ticks) in various power states
system.tol2bus.trans_dist::ReadResp           2627466                       # Transaction distribution
system.tol2bus.trans_dist::ReadRespWithInvalidate           17                       # Transaction distribution
system.tol2bus.trans_dist::WritebackDirty       834757                       # Transaction distribution
system.tol2bus.trans_dist::WritebackClean      2265510                       # Transaction distribution
system.tol2bus.trans_dist::CleanEvict         3613916                       # Transaction distribution
system.tol2bus.trans_dist::UpgradeReq           14296                       # Transaction distribution
system.tol2bus.trans_dist::SCUpgradeReq         22790                       # Transaction distribution
system.tol2bus.trans_dist::UpgradeResp          37086                       # Transaction distribution
system.tol2bus.trans_dist::SCUpgradeFailReq          465                       # Transaction distribution
system.tol2bus.trans_dist::UpgradeFailResp          465                       # Transaction distribution
system.tol2bus.trans_dist::ReadExReq           144152                       # Transaction distribution
system.tol2bus.trans_dist::ReadExResp          144152                       # Transaction distribution
system.tol2bus.trans_dist::ReadCleanReq        179121                       # Transaction distribution
system.tol2bus.trans_dist::ReadSharedReq      2448361                       # Transaction distribution
system.tol2bus.trans_dist::InvalidateReq           83                       # Transaction distribution
system.tol2bus.trans_dist::InvalidateResp           83                       # Transaction distribution
system.tol2bus.pkt_count_system.cpu0.icache.mem_side::system.l2.cpu_side       328283                       # Packet count per connected master and slave (bytes)
system.tol2bus.pkt_count_system.cpu0.dcache.mem_side::system.l2.cpu_side      2099929                       # Packet count per connected master and slave (bytes)
system.tol2bus.pkt_count_system.cpu1.icache.mem_side::system.l2.cpu_side        69669                       # Packet count per connected master and slave (bytes)
system.tol2bus.pkt_count_system.cpu1.dcache.mem_side::system.l2.cpu_side      1894266                       # Packet count per connected master and slave (bytes)
system.tol2bus.pkt_count_system.cpu2.icache.mem_side::system.l2.cpu_side        69924                       # Packet count per connected master and slave (bytes)
system.tol2bus.pkt_count_system.cpu2.dcache.mem_side::system.l2.cpu_side      1885158                       # Packet count per connected master and slave (bytes)
system.tol2bus.pkt_count_system.cpu3.icache.mem_side::system.l2.cpu_side        69489                       # Packet count per connected master and slave (bytes)
system.tol2bus.pkt_count_system.cpu3.dcache.mem_side::system.l2.cpu_side      1837115                       # Packet count per connected master and slave (bytes)
system.tol2bus.pkt_count::total               8253833                       # Packet count per connected master and slave (bytes)
system.tol2bus.pkt_size_system.cpu0.icache.mem_side::system.l2.cpu_side     14006784                       # Cumulative packet size per connected master and slave (bytes)
system.tol2bus.pkt_size_system.cpu0.dcache.mem_side::system.l2.cpu_side     88516800                       # Cumulative packet size per connected master and slave (bytes)
system.tol2bus.pkt_size_system.cpu1.icache.mem_side::system.l2.cpu_side      2972544                       # Cumulative packet size per connected master and slave (bytes)
system.tol2bus.pkt_size_system.cpu1.dcache.mem_side::system.l2.cpu_side     79809472                       # Cumulative packet size per connected master and slave (bytes)
system.tol2bus.pkt_size_system.cpu2.icache.mem_side::system.l2.cpu_side      2983424                       # Cumulative packet size per connected master and slave (bytes)
system.tol2bus.pkt_size_system.cpu2.dcache.mem_side::system.l2.cpu_side     79408128                       # Cumulative packet size per connected master and slave (bytes)
system.tol2bus.pkt_size_system.cpu3.icache.mem_side::system.l2.cpu_side      2964864                       # Cumulative packet size per connected master and slave (bytes)
system.tol2bus.pkt_size_system.cpu3.dcache.mem_side::system.l2.cpu_side     77374848                       # Cumulative packet size per connected master and slave (bytes)
system.tol2bus.pkt_size::total              348036864                       # Cumulative packet size per connected master and slave (bytes)
system.tol2bus.snoops                         4078887                       # Total snoops (count)
system.tol2bus.snoopTraffic                  27794624                       # Total snoop traffic (bytes)
system.tol2bus.snoop_fanout::samples          6802151                       # Request fanout histogram
system.tol2bus.snoop_fanout::mean            0.470341                       # Request fanout histogram
system.tol2bus.snoop_fanout::stdev           0.705628                       # Request fanout histogram
system.tol2bus.snoop_fanout::underflows             0      0.00%      0.00% # Request fanout histogram
system.tol2bus.snoop_fanout::0                4204490     61.81%     61.81% # Request fanout histogram
system.tol2bus.snoop_fanout::1                2208033     32.46%     94.27% # Request fanout histogram
system.tol2bus.snoop_fanout::2                 210024      3.09%     97.36% # Request fanout histogram
system.tol2bus.snoop_fanout::3                 147165      2.16%     99.52% # Request fanout histogram
system.tol2bus.snoop_fanout::4                  32439      0.48%    100.00% # Request fanout histogram
system.tol2bus.snoop_fanout::5                      0      0.00%    100.00% # Request fanout histogram
system.tol2bus.snoop_fanout::6                      0      0.00%    100.00% # Request fanout histogram
system.tol2bus.snoop_fanout::7                      0      0.00%    100.00% # Request fanout histogram
system.tol2bus.snoop_fanout::8                      0      0.00%    100.00% # Request fanout histogram
system.tol2bus.snoop_fanout::overflows              0      0.00%    100.00% # Request fanout histogram
system.tol2bus.snoop_fanout::min_value              0                       # Request fanout histogram
system.tol2bus.snoop_fanout::max_value              4                       # Request fanout histogram
system.tol2bus.snoop_fanout::total            6802151                       # Request fanout histogram
system.tol2bus.reqLayer0.occupancy         5487089053                       # Layer occupancy (ticks)
system.tol2bus.reqLayer0.utilization             13.0                       # Layer utilization (%)
system.tol2bus.respLayer5.occupancy         959497378                       # Layer occupancy (ticks)
system.tol2bus.respLayer5.utilization             2.3                       # Layer utilization (%)
system.tol2bus.respLayer4.occupancy          37459734                       # Layer occupancy (ticks)
system.tol2bus.respLayer4.utilization             0.1                       # Layer utilization (%)
system.tol2bus.respLayer7.occupancy         935232192                       # Layer occupancy (ticks)
system.tol2bus.respLayer7.utilization             2.2                       # Layer utilization (%)
system.tol2bus.respLayer6.occupancy          37067734                       # Layer occupancy (ticks)
system.tol2bus.respLayer6.utilization             0.1                       # Layer utilization (%)
system.tol2bus.respLayer1.occupancy        1064890641                       # Layer occupancy (ticks)
system.tol2bus.respLayer1.utilization             2.5                       # Layer utilization (%)
system.tol2bus.respLayer0.occupancy         164406827                       # Layer occupancy (ticks)
system.tol2bus.respLayer0.utilization             0.4                       # Layer utilization (%)
system.tol2bus.respLayer3.occupancy         963631308                       # Layer occupancy (ticks)
system.tol2bus.respLayer3.utilization             2.3                       # Layer utilization (%)
system.tol2bus.respLayer2.occupancy          37201023                       # Layer occupancy (ticks)
system.tol2bus.respLayer2.utilization             0.1                       # Layer utilization (%)

---------- End Simulation Statistics   ----------
