
---------- Begin Simulation Statistics ----------
final_tick                                49896388500                       # Number of ticks from beginning of simulation (restored from checkpoints and never reset)
host_inst_rate                                 128962                       # Simulator instruction rate (inst/s)
host_mem_usage                                 737024                       # Number of bytes of host memory used
host_op_rate                                   128963                       # Simulator op (including micro ops) rate (op/s)
host_seconds                                   654.67                       # Real time elapsed on the host
host_tick_rate                               76215884                       # Simulator tick rate (ticks/s)
sim_freq                                 1000000000000                       # Frequency of simulated ticks
sim_insts                                    84428412                       # Number of instructions simulated
sim_ops                                      84428579                       # Number of ops (including micro ops) simulated
sim_seconds                                  0.049896                       # Number of seconds simulated
sim_ticks                                 49896388500                       # Number of ticks simulated
system.cpu0.branchPred.BTBCorrect                   0                       # Number of correct BTB predictions (this stat may not work properly.
system.cpu0.branchPred.BTBHitPct            84.519055                       # BTB Hit Percentage
system.cpu0.branchPred.BTBHits               17052426                       # Number of BTB hits
system.cpu0.branchPred.BTBLookups            20175836                       # Number of BTB lookups
system.cpu0.branchPred.RASInCorrect                 0                       # Number of incorrect RAS predictions.
system.cpu0.branchPred.condIncorrect          4588912                       # Number of conditional branches incorrect
system.cpu0.branchPred.condPredicted         18403388                       # Number of conditional branches predicted
system.cpu0.branchPred.indirectHits           1497406                       # Number of indirect target hits.
system.cpu0.branchPred.indirectLookups        1500387                       # Number of indirect predictor lookups.
system.cpu0.branchPred.indirectMisses            2981                       # Number of indirect misses.
system.cpu0.branchPred.lookups               22948417                       # Number of BP lookups
system.cpu0.branchPred.usedRAS                      0                       # Number of times the RAS was used to get a target.
system.cpu0.branchPredindirectMispredicted         1777                       # Number of mispredicted indirect branches.
system.cpu0.commit.amos                           142                       # Number of atomic instructions committed
system.cpu0.commit.branchMispredicts          2361954                       # The number of times a branch was mispredicted
system.cpu0.commit.branches                  12548512                       # Number of branches committed
system.cpu0.commit.bw_lim_events               437288                       # number cycles where commit BW limit reached
system.cpu0.commit.commitNonSpecStalls            717                       # The number of times commit has been forced to stall to communicate backwards
system.cpu0.commit.commitSquashedInsts       27148994                       # The number of squashed insts skipped by commit
system.cpu0.commit.committedInsts            84409378                       # Number of instructions committed
system.cpu0.commit.committedOps              84409517                       # Number of ops (including micro ops) committed
system.cpu0.commit.committed_per_cycle::samples     95414298                       # Number of insts commited each cycle
system.cpu0.commit.committed_per_cycle::mean     0.884663                       # Number of insts commited each cycle
system.cpu0.commit.committed_per_cycle::stdev     1.178892                       # Number of insts commited each cycle
system.cpu0.commit.committed_per_cycle::underflows            0      0.00%      0.00% # Number of insts commited each cycle
system.cpu0.commit.committed_per_cycle::0     47206843     49.47%     49.47% # Number of insts commited each cycle
system.cpu0.commit.committed_per_cycle::1     25467110     26.69%     76.16% # Number of insts commited each cycle
system.cpu0.commit.committed_per_cycle::2     14697289     15.40%     91.57% # Number of insts commited each cycle
system.cpu0.commit.committed_per_cycle::3      5779919      6.05%     97.62% # Number of insts commited each cycle
system.cpu0.commit.committed_per_cycle::4       817156      0.85%     98.48% # Number of insts commited each cycle
system.cpu0.commit.committed_per_cycle::5       786648      0.82%     99.30% # Number of insts commited each cycle
system.cpu0.commit.committed_per_cycle::6        46411      0.04%     99.35% # Number of insts commited each cycle
system.cpu0.commit.committed_per_cycle::7       175634      0.18%     99.54% # Number of insts commited each cycle
system.cpu0.commit.committed_per_cycle::8       437288      0.45%     99.99% # Number of insts commited each cycle
system.cpu0.commit.committed_per_cycle::overflows            0      0.00%     99.99% # Number of insts commited each cycle
system.cpu0.commit.committed_per_cycle::min_value            0                       # Number of insts commited each cycle
system.cpu0.commit.committed_per_cycle::max_value            8                       # Number of insts commited each cycle
system.cpu0.commit.committed_per_cycle::total     95414298                       # Number of insts commited each cycle
system.cpu0.commit.fp_insts                   9691399                       # Number of committed floating point instructions.
system.cpu0.commit.function_calls             2719408                       # Number of function calls committed.
system.cpu0.commit.int_insts                 80316625                       # Number of committed integer instructions.
system.cpu0.commit.loads                      7209393                       # Number of loads committed
system.cpu0.commit.membars                        412                       # Number of memory barriers committed
system.cpu0.commit.op_class_0::No_OpClass          415      0.00%      0.00% # Class of committed instruction
system.cpu0.commit.op_class_0::IntAlu        64675502     76.62%     76.62% # Class of committed instruction
system.cpu0.commit.op_class_0::IntMult           1285      0.00%     76.62% # Class of committed instruction
system.cpu0.commit.op_class_0::IntDiv              18      0.00%     76.62% # Class of committed instruction
system.cpu0.commit.op_class_0::FloatAdd       2713580      3.21%     79.83% # Class of committed instruction
system.cpu0.commit.op_class_0::FloatCmp       4070372      4.82%     84.66% # Class of committed instruction
system.cpu0.commit.op_class_0::FloatCvt       1453708      1.72%     86.38% # Class of committed instruction
system.cpu0.commit.op_class_0::FloatMult      1356790      1.60%     87.98% # Class of committed instruction
system.cpu0.commit.op_class_0::FloatMultAcc            0      0.00%     87.98% # Class of committed instruction
system.cpu0.commit.op_class_0::FloatDiv             0      0.00%     87.98% # Class of committed instruction
system.cpu0.commit.op_class_0::FloatMisc            2      0.00%     87.98% # Class of committed instruction
system.cpu0.commit.op_class_0::FloatSqrt            0      0.00%     87.98% # Class of committed instruction
system.cpu0.commit.op_class_0::SimdAdd              0      0.00%     87.98% # Class of committed instruction
system.cpu0.commit.op_class_0::SimdAddAcc            0      0.00%     87.98% # Class of committed instruction
system.cpu0.commit.op_class_0::SimdAlu              0      0.00%     87.98% # Class of committed instruction
system.cpu0.commit.op_class_0::SimdCmp              0      0.00%     87.98% # Class of committed instruction
system.cpu0.commit.op_class_0::SimdCvt              0      0.00%     87.98% # Class of committed instruction
system.cpu0.commit.op_class_0::SimdMisc             0      0.00%     87.98% # Class of committed instruction
system.cpu0.commit.op_class_0::SimdMult             0      0.00%     87.98% # Class of committed instruction
system.cpu0.commit.op_class_0::SimdMultAcc            0      0.00%     87.98% # Class of committed instruction
system.cpu0.commit.op_class_0::SimdShift            0      0.00%     87.98% # Class of committed instruction
system.cpu0.commit.op_class_0::SimdShiftAcc            0      0.00%     87.98% # Class of committed instruction
system.cpu0.commit.op_class_0::SimdDiv              0      0.00%     87.98% # Class of committed instruction
system.cpu0.commit.op_class_0::SimdSqrt             0      0.00%     87.98% # Class of committed instruction
system.cpu0.commit.op_class_0::SimdFloatAdd            0      0.00%     87.98% # Class of committed instruction
system.cpu0.commit.op_class_0::SimdFloatAlu            0      0.00%     87.98% # Class of committed instruction
system.cpu0.commit.op_class_0::SimdFloatCmp            0      0.00%     87.98% # Class of committed instruction
system.cpu0.commit.op_class_0::SimdFloatCvt            0      0.00%     87.98% # Class of committed instruction
system.cpu0.commit.op_class_0::SimdFloatDiv            0      0.00%     87.98% # Class of committed instruction
system.cpu0.commit.op_class_0::SimdFloatMisc            0      0.00%     87.98% # Class of committed instruction
system.cpu0.commit.op_class_0::SimdFloatMult            0      0.00%     87.98% # Class of committed instruction
system.cpu0.commit.op_class_0::SimdFloatMultAcc            0      0.00%     87.98% # Class of committed instruction
system.cpu0.commit.op_class_0::SimdFloatSqrt            0      0.00%     87.98% # Class of committed instruction
system.cpu0.commit.op_class_0::SimdReduceAdd            0      0.00%     87.98% # Class of committed instruction
system.cpu0.commit.op_class_0::SimdReduceAlu            0      0.00%     87.98% # Class of committed instruction
system.cpu0.commit.op_class_0::SimdReduceCmp            0      0.00%     87.98% # Class of committed instruction
system.cpu0.commit.op_class_0::SimdFloatReduceAdd            0      0.00%     87.98% # Class of committed instruction
system.cpu0.commit.op_class_0::SimdFloatReduceCmp            0      0.00%     87.98% # Class of committed instruction
system.cpu0.commit.op_class_0::SimdAes              0      0.00%     87.98% # Class of committed instruction
system.cpu0.commit.op_class_0::SimdAesMix            0      0.00%     87.98% # Class of committed instruction
system.cpu0.commit.op_class_0::SimdSha1Hash            0      0.00%     87.98% # Class of committed instruction
system.cpu0.commit.op_class_0::SimdSha1Hash2            0      0.00%     87.98% # Class of committed instruction
system.cpu0.commit.op_class_0::SimdSha256Hash            0      0.00%     87.98% # Class of committed instruction
system.cpu0.commit.op_class_0::SimdSha256Hash2            0      0.00%     87.98% # Class of committed instruction
system.cpu0.commit.op_class_0::SimdShaSigma2            0      0.00%     87.98% # Class of committed instruction
system.cpu0.commit.op_class_0::SimdShaSigma3            0      0.00%     87.98% # Class of committed instruction
system.cpu0.commit.op_class_0::SimdPredAlu            0      0.00%     87.98% # Class of committed instruction
system.cpu0.commit.op_class_0::MemRead        7112613      8.42%     96.41% # Class of committed instruction
system.cpu0.commit.op_class_0::MemWrite       2928285      3.46%     99.88% # Class of committed instruction
system.cpu0.commit.op_class_0::FloatMemRead        96922      0.11%     99.99% # Class of committed instruction
system.cpu0.commit.op_class_0::FloatMemWrite           25      0.00%     99.99% # Class of committed instruction
system.cpu0.commit.op_class_0::IprAccess            0      0.00%     99.99% # Class of committed instruction
system.cpu0.commit.op_class_0::InstPrefetch            0      0.00%     99.99% # Class of committed instruction
system.cpu0.commit.op_class_0::total         84409517                       # Class of committed instruction
system.cpu0.commit.refs                      10137845                       # Number of memory references committed
system.cpu0.commit.swp_count                        0                       # Number of s/w prefetches committed
system.cpu0.commit.vec_insts                        0                       # Number of committed Vector instructions.
system.cpu0.committedInsts                   84409378                       # Number of Instructions Simulated
system.cpu0.committedOps                     84409517                       # Number of Ops (including micro ops) Simulated
system.cpu0.cpi                              1.182241                       # CPI: Cycles Per Instruction
system.cpu0.cpi_total                        1.182241                       # CPI: Total CPI of All Threads
system.cpu0.decode.BlockedCycles              1820586                       # Number of cycles decode is blocked
system.cpu0.decode.BranchMispred              2227152                       # Number of times decode detected a branch misprediction
system.cpu0.decode.BranchResolved            15211959                       # Number of times decode resolved a branch
system.cpu0.decode.DecodedInsts             120851757                       # Number of instructions handled by decode
system.cpu0.decode.IdleCycles                24587328                       # Number of cycles decode is idle
system.cpu0.decode.RunCycles                 69810766                       # Number of cycles decode is running
system.cpu0.decode.SquashCycles               2362027                       # Number of cycles decode is squashing
system.cpu0.decode.SquashedInsts              4298971                       # Number of squashed instructions handled by decode
system.cpu0.decode.UnblockCycles               989637                       # Number of cycles decode is unblocking
system.cpu0.dtb.accesses                            0                       # DTB accesses
system.cpu0.dtb.hits                                0                       # DTB hits
system.cpu0.dtb.misses                              0                       # DTB misses
system.cpu0.dtb.read_accesses                       0                       # DTB read accesses
system.cpu0.dtb.read_hits                           0                       # DTB read hits
system.cpu0.dtb.read_misses                         0                       # DTB read misses
system.cpu0.dtb.write_accesses                      0                       # DTB write accesses
system.cpu0.dtb.write_hits                          0                       # DTB write hits
system.cpu0.dtb.write_misses                        0                       # DTB write misses
system.cpu0.fetch.Branches                   22948417                       # Number of branches that fetch encountered
system.cpu0.fetch.CacheLines                 17034470                       # Number of cache lines fetched
system.cpu0.fetch.Cycles                     74934440                       # Number of cycles fetch has run and was not squashing or blocked
system.cpu0.fetch.IcacheSquashes               102744                       # Number of outstanding Icache misses that were squashed
system.cpu0.fetch.IcacheWaitRetryStallCycles          120                       # Number of stall cycles due to full MSHR
system.cpu0.fetch.Insts                     135910808                       # Number of instructions fetch has processed
system.cpu0.fetch.MiscStallCycles                  36                       # Number of cycles fetch has spent waiting on interrupts, or bad addresses, or out of MSHRs
system.cpu0.fetch.PendingTrapStallCycles           53                       # Number of stall cycles due to pending traps
system.cpu0.fetch.SquashCycles                9177986                       # Number of cycles fetch has spent squashing
system.cpu0.fetch.branchRate                 0.229961                       # Number of branch fetches per cycle
system.cpu0.fetch.icacheStallCycles          20046702                       # Number of cycles fetch is stalled on an Icache miss
system.cpu0.fetch.predictedBranches          18549832                       # Number of branches that fetch has predicted taken
system.cpu0.fetch.rate                       1.361937                       # Number of inst fetches per cycle
system.cpu0.fetch.rateDist::samples          99570344                       # Number of instructions fetched each cycle (Total)
system.cpu0.fetch.rateDist::mean             1.364975                       # Number of instructions fetched each cycle (Total)
system.cpu0.fetch.rateDist::stdev            1.355847                       # Number of instructions fetched each cycle (Total)
system.cpu0.fetch.rateDist::underflows              0      0.00%      0.00% # Number of instructions fetched each cycle (Total)
system.cpu0.fetch.rateDist::0                24653411     24.75%     24.75% # Number of instructions fetched each cycle (Total)
system.cpu0.fetch.rateDist::1                43662558     43.85%     68.61% # Number of instructions fetched each cycle (Total)
system.cpu0.fetch.rateDist::2                16613185     16.68%     85.29% # Number of instructions fetched each cycle (Total)
system.cpu0.fetch.rateDist::3                 7256522      7.28%     92.58% # Number of instructions fetched each cycle (Total)
system.cpu0.fetch.rateDist::4                 2445076      2.45%     95.03% # Number of instructions fetched each cycle (Total)
system.cpu0.fetch.rateDist::5                 2167289      2.17%     97.21% # Number of instructions fetched each cycle (Total)
system.cpu0.fetch.rateDist::6                 2771118      2.78%     99.99% # Number of instructions fetched each cycle (Total)
system.cpu0.fetch.rateDist::7                     398      0.00%     99.99% # Number of instructions fetched each cycle (Total)
system.cpu0.fetch.rateDist::8                     787      0.00%     99.99% # Number of instructions fetched each cycle (Total)
system.cpu0.fetch.rateDist::overflows               0      0.00%     99.99% # Number of instructions fetched each cycle (Total)
system.cpu0.fetch.rateDist::min_value               0                       # Number of instructions fetched each cycle (Total)
system.cpu0.fetch.rateDist::max_value               8                       # Number of instructions fetched each cycle (Total)
system.cpu0.fetch.rateDist::total            99570344                       # Number of instructions fetched each cycle (Total)
system.cpu0.fp_regfile_reads                 18352778                       # number of floating regfile reads
system.cpu0.fp_regfile_writes                 5677737                       # number of floating regfile writes
system.cpu0.idleCycles                         221926                       # Total number of cycles that the CPU has spent unscheduled due to idling
system.cpu0.iew.branchMispredicts             2517568                       # Number of branch mispredicts detected at execute
system.cpu0.iew.exec_branches                16638310                       # Number of branches executed
system.cpu0.iew.exec_nop                            0                       # number of nop insts executed
system.cpu0.iew.exec_rate                    1.058274                       # Inst execution rate
system.cpu0.iew.exec_refs                    14525440                       # number of memory reference insts executed
system.cpu0.iew.exec_stores                   3702445                       # Number of stores executed
system.cpu0.iew.exec_swp                            0                       # number of swp insts executed
system.cpu0.iew.iewBlockCycles                1797187                       # Number of cycles IEW is blocking
system.cpu0.iew.iewDispLoadInsts             10942287                       # Number of dispatched load instructions
system.cpu0.iew.iewDispNonSpecInsts               374                       # Number of dispatched non-speculative instructions
system.cpu0.iew.iewDispSquashedInsts           535984                       # Number of squashed instructions skipped by dispatch
system.cpu0.iew.iewDispStoreInsts             4411458                       # Number of dispatched store instructions
system.cpu0.iew.iewDispatchedInsts          111558507                       # Number of instructions dispatched to IQ
system.cpu0.iew.iewExecLoadInsts             10822995                       # Number of load instructions executed
system.cpu0.iew.iewExecSquashedInsts          2315387                       # Number of squashed instructions skipped in execute
system.cpu0.iew.iewExecutedInsts            105607614                       # Number of executed instructions
system.cpu0.iew.iewIQFullEvents                    14                       # Number of times the IQ has become full, causing a stall
system.cpu0.iew.iewIdleCycles                       0                       # Number of cycles IEW is idle
system.cpu0.iew.iewLSQFullEvents                 1143                       # Number of times the LSQ has become full, causing a stall
system.cpu0.iew.iewSquashCycles               2362027                       # Number of cycles IEW is squashing
system.cpu0.iew.iewUnblockCycles                 1176                       # Number of cycles IEW is unblocking
system.cpu0.iew.lsq.thread0.blockedLoads            0                       # Number of blocked loads due to partial load-store forwarding
system.cpu0.iew.lsq.thread0.cacheBlocked          634                       # Number of times an access to memory failed due to the cache being blocked
system.cpu0.iew.lsq.thread0.forwLoads          145520                       # Number of loads that had data forwarded from stores
system.cpu0.iew.lsq.thread0.ignoredResponses           43                       # Number of memory responses ignored because the instruction is squashed
system.cpu0.iew.lsq.thread0.invAddrLoads            0                       # Number of loads ignored due to an invalid address
system.cpu0.iew.lsq.thread0.invAddrSwpfs            0                       # Number of software prefetches ignored due to an invalid address
system.cpu0.iew.lsq.thread0.memOrderViolation           55                       # Number of memory ordering violations
system.cpu0.iew.lsq.thread0.rescheduledLoads            6                       # Number of loads that were rescheduled
system.cpu0.iew.lsq.thread0.squashedLoads      3732894                       # Number of loads squashed
system.cpu0.iew.lsq.thread0.squashedStores      1483006                       # Number of stores squashed
system.cpu0.iew.memOrderViolationEvents            55                       # Number of memory order violations
system.cpu0.iew.predictedNotTakenIncorrect         5800                       # Number of branches that were predicted not taken incorrectly
system.cpu0.iew.predictedTakenIncorrect       2511768                       # Number of branches that were predicted taken incorrectly
system.cpu0.iew.wb_consumers                 82511515                       # num instructions consuming a value
system.cpu0.iew.wb_count                    104760964                       # cumulative count of insts written-back
system.cpu0.iew.wb_fanout                    0.826477                       # average fanout of values written-back
system.cpu0.iew.wb_producers                 68193889                       # num instructions producing a value
system.cpu0.iew.wb_rate                      1.049790                       # insts written-back per cycle
system.cpu0.iew.wb_sent                     104834765                       # cumulative count of insts sent to commit
system.cpu0.int_regfile_reads               121126318                       # number of integer regfile reads
system.cpu0.int_regfile_writes               80408301                       # number of integer regfile writes
system.cpu0.ipc                              0.845850                       # IPC: Instructions Per Cycle
system.cpu0.ipc_total                        0.845850                       # IPC: Total IPC of All Threads
system.cpu0.iq.FU_type_0::No_OpClass              455      0.00%      0.00% # Type of FU issued
system.cpu0.iq.FU_type_0::IntAlu             82413838     76.36%     76.36% # Type of FU issued
system.cpu0.iq.FU_type_0::IntMult                1290      0.00%     76.36% # Type of FU issued
system.cpu0.iq.FU_type_0::IntDiv                   20      0.00%     76.36% # Type of FU issued
system.cpu0.iq.FU_type_0::FloatAdd            2723900      2.52%     78.88% # Type of FU issued
system.cpu0.iq.FU_type_0::FloatCmp            5103653      4.72%     83.61% # Type of FU issued
system.cpu0.iq.FU_type_0::FloatCvt            1613320      1.49%     85.11% # Type of FU issued
system.cpu0.iq.FU_type_0::FloatMult           1357624      1.25%     86.37% # Type of FU issued
system.cpu0.iq.FU_type_0::FloatMultAcc              0      0.00%     86.37% # Type of FU issued
system.cpu0.iq.FU_type_0::FloatDiv                  0      0.00%     86.37% # Type of FU issued
system.cpu0.iq.FU_type_0::FloatMisc                 2      0.00%     86.37% # Type of FU issued
system.cpu0.iq.FU_type_0::FloatSqrt                 0      0.00%     86.37% # Type of FU issued
system.cpu0.iq.FU_type_0::SimdAdd                   0      0.00%     86.37% # Type of FU issued
system.cpu0.iq.FU_type_0::SimdAddAcc                0      0.00%     86.37% # Type of FU issued
system.cpu0.iq.FU_type_0::SimdAlu                   0      0.00%     86.37% # Type of FU issued
system.cpu0.iq.FU_type_0::SimdCmp                   0      0.00%     86.37% # Type of FU issued
system.cpu0.iq.FU_type_0::SimdCvt                   0      0.00%     86.37% # Type of FU issued
system.cpu0.iq.FU_type_0::SimdMisc                  0      0.00%     86.37% # Type of FU issued
system.cpu0.iq.FU_type_0::SimdMult                  0      0.00%     86.37% # Type of FU issued
system.cpu0.iq.FU_type_0::SimdMultAcc               0      0.00%     86.37% # Type of FU issued
system.cpu0.iq.FU_type_0::SimdShift                 0      0.00%     86.37% # Type of FU issued
system.cpu0.iq.FU_type_0::SimdShiftAcc              0      0.00%     86.37% # Type of FU issued
system.cpu0.iq.FU_type_0::SimdDiv                   0      0.00%     86.37% # Type of FU issued
system.cpu0.iq.FU_type_0::SimdSqrt                  0      0.00%     86.37% # Type of FU issued
system.cpu0.iq.FU_type_0::SimdFloatAdd              0      0.00%     86.37% # Type of FU issued
system.cpu0.iq.FU_type_0::SimdFloatAlu              0      0.00%     86.37% # Type of FU issued
system.cpu0.iq.FU_type_0::SimdFloatCmp              0      0.00%     86.37% # Type of FU issued
system.cpu0.iq.FU_type_0::SimdFloatCvt              0      0.00%     86.37% # Type of FU issued
system.cpu0.iq.FU_type_0::SimdFloatDiv              0      0.00%     86.37% # Type of FU issued
system.cpu0.iq.FU_type_0::SimdFloatMisc             0      0.00%     86.37% # Type of FU issued
system.cpu0.iq.FU_type_0::SimdFloatMult             0      0.00%     86.37% # Type of FU issued
system.cpu0.iq.FU_type_0::SimdFloatMultAcc            0      0.00%     86.37% # Type of FU issued
system.cpu0.iq.FU_type_0::SimdFloatSqrt             0      0.00%     86.37% # Type of FU issued
system.cpu0.iq.FU_type_0::SimdReduceAdd             0      0.00%     86.37% # Type of FU issued
system.cpu0.iq.FU_type_0::SimdReduceAlu             0      0.00%     86.37% # Type of FU issued
system.cpu0.iq.FU_type_0::SimdReduceCmp             0      0.00%     86.37% # Type of FU issued
system.cpu0.iq.FU_type_0::SimdFloatReduceAdd            0      0.00%     86.37% # Type of FU issued
system.cpu0.iq.FU_type_0::SimdFloatReduceCmp            0      0.00%     86.37% # Type of FU issued
system.cpu0.iq.FU_type_0::SimdAes                   0      0.00%     86.37% # Type of FU issued
system.cpu0.iq.FU_type_0::SimdAesMix                0      0.00%     86.37% # Type of FU issued
system.cpu0.iq.FU_type_0::SimdSha1Hash              0      0.00%     86.37% # Type of FU issued
system.cpu0.iq.FU_type_0::SimdSha1Hash2             0      0.00%     86.37% # Type of FU issued
system.cpu0.iq.FU_type_0::SimdSha256Hash            0      0.00%     86.37% # Type of FU issued
system.cpu0.iq.FU_type_0::SimdSha256Hash2            0      0.00%     86.37% # Type of FU issued
system.cpu0.iq.FU_type_0::SimdShaSigma2             0      0.00%     86.37% # Type of FU issued
system.cpu0.iq.FU_type_0::SimdShaSigma3             0      0.00%     86.37% # Type of FU issued
system.cpu0.iq.FU_type_0::SimdPredAlu               0      0.00%     86.37% # Type of FU issued
system.cpu0.iq.FU_type_0::MemRead            10793421     10.00%     96.37% # Type of FU issued
system.cpu0.iq.FU_type_0::MemWrite            3795746      3.51%     99.88% # Type of FU issued
system.cpu0.iq.FU_type_0::FloatMemRead         119709      0.11%     99.99% # Type of FU issued
system.cpu0.iq.FU_type_0::FloatMemWrite            25      0.00%     99.99% # Type of FU issued
system.cpu0.iq.FU_type_0::IprAccess                 0      0.00%     99.99% # Type of FU issued
system.cpu0.iq.FU_type_0::InstPrefetch              0      0.00%     99.99% # Type of FU issued
system.cpu0.iq.FU_type_0::total             107923003                       # Type of FU issued
system.cpu0.iq.fp_alu_accesses               10918247                       # Number of floating point alu accesses
system.cpu0.iq.fp_inst_queue_reads           21836480                       # Number of floating instruction queue reads
system.cpu0.iq.fp_inst_queue_wakeup_accesses     10781416                       # Number of floating instruction queue wakeup accesses
system.cpu0.iq.fp_inst_queue_writes          12209261                       # Number of floating instruction queue writes
system.cpu0.iq.fu_busy_cnt                     271465                       # FU busy when requested
system.cpu0.iq.fu_busy_rate                  0.002515                       # FU busy rate (busy events/executed inst)
system.cpu0.iq.fu_full::No_OpClass                  0      0.00%      0.00% # attempts to use FU when none available
system.cpu0.iq.fu_full::IntAlu                 270509     99.64%     99.64% # attempts to use FU when none available
system.cpu0.iq.fu_full::IntMult                     0      0.00%     99.64% # attempts to use FU when none available
system.cpu0.iq.fu_full::IntDiv                      0      0.00%     99.64% # attempts to use FU when none available
system.cpu0.iq.fu_full::FloatAdd                    0      0.00%     99.64% # attempts to use FU when none available
system.cpu0.iq.fu_full::FloatCmp                    0      0.00%     99.64% # attempts to use FU when none available
system.cpu0.iq.fu_full::FloatCvt                   10      0.00%     99.65% # attempts to use FU when none available
system.cpu0.iq.fu_full::FloatMult                   0      0.00%     99.65% # attempts to use FU when none available
system.cpu0.iq.fu_full::FloatMultAcc                0      0.00%     99.65% # attempts to use FU when none available
system.cpu0.iq.fu_full::FloatDiv                    0      0.00%     99.65% # attempts to use FU when none available
system.cpu0.iq.fu_full::FloatMisc                   0      0.00%     99.65% # attempts to use FU when none available
system.cpu0.iq.fu_full::FloatSqrt                   0      0.00%     99.65% # attempts to use FU when none available
system.cpu0.iq.fu_full::SimdAdd                     0      0.00%     99.65% # attempts to use FU when none available
system.cpu0.iq.fu_full::SimdAddAcc                  0      0.00%     99.65% # attempts to use FU when none available
system.cpu0.iq.fu_full::SimdAlu                     0      0.00%     99.65% # attempts to use FU when none available
system.cpu0.iq.fu_full::SimdCmp                     0      0.00%     99.65% # attempts to use FU when none available
system.cpu0.iq.fu_full::SimdCvt                     0      0.00%     99.65% # attempts to use FU when none available
system.cpu0.iq.fu_full::SimdMisc                    0      0.00%     99.65% # attempts to use FU when none available
system.cpu0.iq.fu_full::SimdMult                    0      0.00%     99.65% # attempts to use FU when none available
system.cpu0.iq.fu_full::SimdMultAcc                 0      0.00%     99.65% # attempts to use FU when none available
system.cpu0.iq.fu_full::SimdShift                   0      0.00%     99.65% # attempts to use FU when none available
system.cpu0.iq.fu_full::SimdShiftAcc                0      0.00%     99.65% # attempts to use FU when none available
system.cpu0.iq.fu_full::SimdDiv                     0      0.00%     99.65% # attempts to use FU when none available
system.cpu0.iq.fu_full::SimdSqrt                    0      0.00%     99.65% # attempts to use FU when none available
system.cpu0.iq.fu_full::SimdFloatAdd                0      0.00%     99.65% # attempts to use FU when none available
system.cpu0.iq.fu_full::SimdFloatAlu                0      0.00%     99.65% # attempts to use FU when none available
system.cpu0.iq.fu_full::SimdFloatCmp                0      0.00%     99.65% # attempts to use FU when none available
system.cpu0.iq.fu_full::SimdFloatCvt                0      0.00%     99.65% # attempts to use FU when none available
system.cpu0.iq.fu_full::SimdFloatDiv                0      0.00%     99.65% # attempts to use FU when none available
system.cpu0.iq.fu_full::SimdFloatMisc               0      0.00%     99.65% # attempts to use FU when none available
system.cpu0.iq.fu_full::SimdFloatMult               0      0.00%     99.65% # attempts to use FU when none available
system.cpu0.iq.fu_full::SimdFloatMultAcc            0      0.00%     99.65% # attempts to use FU when none available
system.cpu0.iq.fu_full::SimdFloatSqrt               0      0.00%     99.65% # attempts to use FU when none available
system.cpu0.iq.fu_full::SimdReduceAdd               0      0.00%     99.65% # attempts to use FU when none available
system.cpu0.iq.fu_full::SimdReduceAlu               0      0.00%     99.65% # attempts to use FU when none available
system.cpu0.iq.fu_full::SimdReduceCmp               0      0.00%     99.65% # attempts to use FU when none available
system.cpu0.iq.fu_full::SimdFloatReduceAdd            0      0.00%     99.65% # attempts to use FU when none available
system.cpu0.iq.fu_full::SimdFloatReduceCmp            0      0.00%     99.65% # attempts to use FU when none available
system.cpu0.iq.fu_full::SimdAes                     0      0.00%     99.65% # attempts to use FU when none available
system.cpu0.iq.fu_full::SimdAesMix                  0      0.00%     99.65% # attempts to use FU when none available
system.cpu0.iq.fu_full::SimdSha1Hash                0      0.00%     99.65% # attempts to use FU when none available
system.cpu0.iq.fu_full::SimdSha1Hash2               0      0.00%     99.65% # attempts to use FU when none available
system.cpu0.iq.fu_full::SimdSha256Hash              0      0.00%     99.65% # attempts to use FU when none available
system.cpu0.iq.fu_full::SimdSha256Hash2             0      0.00%     99.65% # attempts to use FU when none available
system.cpu0.iq.fu_full::SimdShaSigma2               0      0.00%     99.65% # attempts to use FU when none available
system.cpu0.iq.fu_full::SimdShaSigma3               0      0.00%     99.65% # attempts to use FU when none available
system.cpu0.iq.fu_full::SimdPredAlu                 0      0.00%     99.65% # attempts to use FU when none available
system.cpu0.iq.fu_full::MemRead                   476      0.17%     99.82% # attempts to use FU when none available
system.cpu0.iq.fu_full::MemWrite                  466      0.17%     99.99% # attempts to use FU when none available
system.cpu0.iq.fu_full::FloatMemRead                0      0.00%     99.99% # attempts to use FU when none available
system.cpu0.iq.fu_full::FloatMemWrite               4      0.00%     99.99% # attempts to use FU when none available
system.cpu0.iq.fu_full::IprAccess                   0      0.00%     99.99% # attempts to use FU when none available
system.cpu0.iq.fu_full::InstPrefetch                0      0.00%     99.99% # attempts to use FU when none available
system.cpu0.iq.int_alu_accesses              97275766                       # Number of integer alu accesses
system.cpu0.iq.int_inst_queue_reads         293961623                       # Number of integer instruction queue reads
system.cpu0.iq.int_inst_queue_wakeup_accesses     93979548                       # Number of integer instruction queue wakeup accesses
system.cpu0.iq.int_inst_queue_writes        126498281                       # Number of integer instruction queue writes
system.cpu0.iq.iqInstsAdded                 111557659                       # Number of instructions added to the IQ (excludes non-spec)
system.cpu0.iq.iqInstsIssued                107923003                       # Number of instructions issued
system.cpu0.iq.iqNonSpecInstsAdded                848                       # Number of non-speculative instructions added to the IQ
system.cpu0.iq.iqSquashedInstsExamined       27148980                       # Number of squashed instructions iterated over during squash; mainly for profiling
system.cpu0.iq.iqSquashedInstsIssued           110290                       # Number of squashed instructions issued
system.cpu0.iq.iqSquashedNonSpecRemoved           131                       # Number of squashed non-spec instructions that were removed
system.cpu0.iq.iqSquashedOperandsExamined      6837848                       # Number of squashed operands that are examined and possibly removed from graph
system.cpu0.iq.issued_per_cycle::samples     99570344                       # Number of insts issued each cycle
system.cpu0.iq.issued_per_cycle::mean        1.083887                       # Number of insts issued each cycle
system.cpu0.iq.issued_per_cycle::stdev       1.186826                       # Number of insts issued each cycle
system.cpu0.iq.issued_per_cycle::underflows            0      0.00%      0.00% # Number of insts issued each cycle
system.cpu0.iq.issued_per_cycle::0           36136752     36.29%     36.29% # Number of insts issued each cycle
system.cpu0.iq.issued_per_cycle::1           35808516     35.96%     72.25% # Number of insts issued each cycle
system.cpu0.iq.issued_per_cycle::2           19201608     19.28%     91.54% # Number of insts issued each cycle
system.cpu0.iq.issued_per_cycle::3            3515381      3.53%     95.07% # Number of insts issued each cycle
system.cpu0.iq.issued_per_cycle::4            2268229      2.27%     97.34% # Number of insts issued each cycle
system.cpu0.iq.issued_per_cycle::5            2098871      2.10%     99.45% # Number of insts issued each cycle
system.cpu0.iq.issued_per_cycle::6             268787      0.26%     99.72% # Number of insts issued each cycle
system.cpu0.iq.issued_per_cycle::7             192465      0.19%     99.91% # Number of insts issued each cycle
system.cpu0.iq.issued_per_cycle::8              79735      0.08%     99.99% # Number of insts issued each cycle
system.cpu0.iq.issued_per_cycle::overflows            0      0.00%     99.99% # Number of insts issued each cycle
system.cpu0.iq.issued_per_cycle::min_value            0                       # Number of insts issued each cycle
system.cpu0.iq.issued_per_cycle::max_value            8                       # Number of insts issued each cycle
system.cpu0.iq.issued_per_cycle::total       99570344                       # Number of insts issued each cycle
system.cpu0.iq.rate                          1.081476                       # Inst issue rate
system.cpu0.iq.vec_alu_accesses                     0                       # Number of vector alu accesses
system.cpu0.iq.vec_inst_queue_reads                 0                       # Number of vector instruction queue reads
system.cpu0.iq.vec_inst_queue_wakeup_accesses            0                       # Number of vector instruction queue wakeup accesses
system.cpu0.iq.vec_inst_queue_writes                0                       # Number of vector instruction queue writes
system.cpu0.itb.accesses                            0                       # DTB accesses
system.cpu0.itb.hits                                0                       # DTB hits
system.cpu0.itb.misses                              0                       # DTB misses
system.cpu0.itb.read_accesses                       0                       # DTB read accesses
system.cpu0.itb.read_hits                           0                       # DTB read hits
system.cpu0.itb.read_misses                         0                       # DTB read misses
system.cpu0.itb.write_accesses                      0                       # DTB write accesses
system.cpu0.itb.write_hits                          0                       # DTB write hits
system.cpu0.itb.write_misses                        0                       # DTB write misses
system.cpu0.memDep0.conflictingLoads              994                       # Number of conflicting loads.
system.cpu0.memDep0.conflictingStores            1028                       # Number of conflicting stores.
system.cpu0.memDep0.insertedLoads            10942287                       # Number of loads inserted to the mem dependence unit.
system.cpu0.memDep0.insertedStores            4411458                       # Number of stores inserted to the mem dependence unit.
system.cpu0.misc_regfile_reads               16101607                       # number of misc regfile reads
system.cpu0.misc_regfile_writes               9594452                       # number of misc regfile writes
system.cpu0.numCycles                        99792270                       # number of cpu cycles simulated
system.cpu0.numWorkItemsCompleted                   0                       # number of work items this cpu completed
system.cpu0.numWorkItemsStarted                     0                       # number of work items this cpu started
system.cpu0.quiesceCycles                         508                       # Total number of cycles that CPU has spent quiesced or waiting for an interrupt
system.cpu0.rename.BlockCycles                1799004                       # Number of cycles rename is blocking
system.cpu0.rename.CommittedMaps             70292148                       # Number of HB maps that are committed
system.cpu0.rename.IQFullEvents                  3480                       # Number of times rename has blocked due to IQ full
system.cpu0.rename.IdleCycles                28891367                       # Number of cycles rename is idle
system.cpu0.rename.LQFullEvents                   977                       # Number of times rename has blocked due to LQ full
system.cpu0.rename.RenameLookups            154183977                       # Number of register rename lookups that rename has made
system.cpu0.rename.RenamedInsts             117170009                       # Number of instructions processed by rename
system.cpu0.rename.RenamedOperands           95915656                       # Number of destination operands rename has renamed
system.cpu0.rename.RunCycles                 66355461                       # Number of cycles rename is running
system.cpu0.rename.SQFullEvents                  7784                       # Number of times rename has blocked due to SQ full
system.cpu0.rename.SquashCycles               2362027                       # Number of cycles rename is squashing
system.cpu0.rename.UnblockCycles               153140                       # Number of cycles rename is unblocking
system.cpu0.rename.UndoneMaps                25623495                       # Number of HB maps that are undone due to squashing
system.cpu0.rename.fp_rename_lookups         19220458                       # Number of floating rename lookups
system.cpu0.rename.int_rename_lookups       134963519                       # Number of integer rename lookups
system.cpu0.rename.serializeStallCycles          9345                       # count of cycles rename stalled for serializing inst
system.cpu0.rename.serializingInsts               219                       # count of serializing insts renamed
system.cpu0.rename.skidInsts                   363238                       # count of insts added to the skid buffer
system.cpu0.rename.tempSerializingInsts           219                       # count of temporary serializing insts renamed
system.cpu0.rob.rob_reads                   206535118                       # The number of ROB reads
system.cpu0.rob.rob_writes                  227273089                       # The number of ROB writes
system.cpu0.timesIdled                           5213                       # Number of times that the entire CPU went into an idle state and unscheduled itself
system.cpu0.workload.numSyscalls                   31                       # Number of system calls
system.cpu1.branchPred.BTBCorrect                   0                       # Number of correct BTB predictions (this stat may not work properly.
system.cpu1.branchPred.BTBHitPct            78.095238                       # BTB Hit Percentage
system.cpu1.branchPred.BTBHits                    656                       # Number of BTB hits
system.cpu1.branchPred.BTBLookups                 840                       # Number of BTB lookups
system.cpu1.branchPred.RASInCorrect                 0                       # Number of incorrect RAS predictions.
system.cpu1.branchPred.condIncorrect               99                       # Number of conditional branches incorrect
system.cpu1.branchPred.condPredicted              755                       # Number of conditional branches predicted
system.cpu1.branchPred.indirectHits                 2                       # Number of indirect target hits.
system.cpu1.branchPred.indirectLookups             44                       # Number of indirect predictor lookups.
system.cpu1.branchPred.indirectMisses              42                       # Number of indirect misses.
system.cpu1.branchPred.lookups                    889                       # Number of BP lookups
system.cpu1.branchPred.usedRAS                      0                       # Number of times the RAS was used to get a target.
system.cpu1.branchPredindirectMispredicted           24                       # Number of mispredicted indirect branches.
system.cpu1.commit.amos                             6                       # Number of atomic instructions committed
system.cpu1.commit.branchMispredicts               61                       # The number of times a branch was mispredicted
system.cpu1.commit.branches                       756                       # Number of branches committed
system.cpu1.commit.bw_lim_events                   11                       # number cycles where commit BW limit reached
system.cpu1.commit.commitNonSpecStalls             27                       # The number of times commit has been forced to stall to communicate backwards
system.cpu1.commit.commitSquashedInsts            335                       # The number of squashed insts skipped by commit
system.cpu1.commit.committedInsts                6292                       # Number of instructions committed
system.cpu1.commit.committedOps                  6300                       # Number of ops (including micro ops) committed
system.cpu1.commit.committed_per_cycle::samples         8519                       # Number of insts commited each cycle
system.cpu1.commit.committed_per_cycle::mean     0.739523                       # Number of insts commited each cycle
system.cpu1.commit.committed_per_cycle::stdev     1.184594                       # Number of insts commited each cycle
system.cpu1.commit.committed_per_cycle::underflows            0      0.00%      0.00% # Number of insts commited each cycle
system.cpu1.commit.committed_per_cycle::0         5039     59.15%     59.15% # Number of insts commited each cycle
system.cpu1.commit.committed_per_cycle::1         2095     24.59%     83.74% # Number of insts commited each cycle
system.cpu1.commit.committed_per_cycle::2          687      8.06%     91.80% # Number of insts commited each cycle
system.cpu1.commit.committed_per_cycle::3           42      0.49%     92.29% # Number of insts commited each cycle
system.cpu1.commit.committed_per_cycle::4          623      7.31%     99.61% # Number of insts commited each cycle
system.cpu1.commit.committed_per_cycle::5            9      0.10%     99.71% # Number of insts commited each cycle
system.cpu1.commit.committed_per_cycle::6           11      0.12%     99.84% # Number of insts commited each cycle
system.cpu1.commit.committed_per_cycle::7            2      0.02%     99.87% # Number of insts commited each cycle
system.cpu1.commit.committed_per_cycle::8           11      0.12%     99.99% # Number of insts commited each cycle
system.cpu1.commit.committed_per_cycle::overflows            0      0.00%     99.99% # Number of insts commited each cycle
system.cpu1.commit.committed_per_cycle::min_value            0                       # Number of insts commited each cycle
system.cpu1.commit.committed_per_cycle::max_value            8                       # Number of insts commited each cycle
system.cpu1.commit.committed_per_cycle::total         8519                       # Number of insts commited each cycle
system.cpu1.commit.fp_insts                        18                       # Number of committed floating point instructions.
system.cpu1.commit.function_calls                  51                       # Number of function calls committed.
system.cpu1.commit.int_insts                     6277                       # Number of committed integer instructions.
system.cpu1.commit.loads                          111                       # Number of loads committed
system.cpu1.commit.membars                         11                       # Number of memory barriers committed
system.cpu1.commit.op_class_0::No_OpClass           11      0.17%      0.17% # Class of committed instruction
system.cpu1.commit.op_class_0::IntAlu            4765     75.63%     75.80% # Class of committed instruction
system.cpu1.commit.op_class_0::IntMult            624      9.90%     85.71% # Class of committed instruction
system.cpu1.commit.op_class_0::IntDiv               2      0.03%     85.74% # Class of committed instruction
system.cpu1.commit.op_class_0::FloatAdd             0      0.00%     85.74% # Class of committed instruction
system.cpu1.commit.op_class_0::FloatCmp             0      0.00%     85.74% # Class of committed instruction
system.cpu1.commit.op_class_0::FloatCvt             0      0.00%     85.74% # Class of committed instruction
system.cpu1.commit.op_class_0::FloatMult            0      0.00%     85.74% # Class of committed instruction
system.cpu1.commit.op_class_0::FloatMultAcc            0      0.00%     85.74% # Class of committed instruction
system.cpu1.commit.op_class_0::FloatDiv             0      0.00%     85.74% # Class of committed instruction
system.cpu1.commit.op_class_0::FloatMisc            0      0.00%     85.74% # Class of committed instruction
system.cpu1.commit.op_class_0::FloatSqrt            0      0.00%     85.74% # Class of committed instruction
system.cpu1.commit.op_class_0::SimdAdd              0      0.00%     85.74% # Class of committed instruction
system.cpu1.commit.op_class_0::SimdAddAcc            0      0.00%     85.74% # Class of committed instruction
system.cpu1.commit.op_class_0::SimdAlu              0      0.00%     85.74% # Class of committed instruction
system.cpu1.commit.op_class_0::SimdCmp              0      0.00%     85.74% # Class of committed instruction
system.cpu1.commit.op_class_0::SimdCvt              0      0.00%     85.74% # Class of committed instruction
system.cpu1.commit.op_class_0::SimdMisc             0      0.00%     85.74% # Class of committed instruction
system.cpu1.commit.op_class_0::SimdMult             0      0.00%     85.74% # Class of committed instruction
system.cpu1.commit.op_class_0::SimdMultAcc            0      0.00%     85.74% # Class of committed instruction
system.cpu1.commit.op_class_0::SimdShift            0      0.00%     85.74% # Class of committed instruction
system.cpu1.commit.op_class_0::SimdShiftAcc            0      0.00%     85.74% # Class of committed instruction
system.cpu1.commit.op_class_0::SimdDiv              0      0.00%     85.74% # Class of committed instruction
system.cpu1.commit.op_class_0::SimdSqrt             0      0.00%     85.74% # Class of committed instruction
system.cpu1.commit.op_class_0::SimdFloatAdd            0      0.00%     85.74% # Class of committed instruction
system.cpu1.commit.op_class_0::SimdFloatAlu            0      0.00%     85.74% # Class of committed instruction
system.cpu1.commit.op_class_0::SimdFloatCmp            0      0.00%     85.74% # Class of committed instruction
system.cpu1.commit.op_class_0::SimdFloatCvt            0      0.00%     85.74% # Class of committed instruction
system.cpu1.commit.op_class_0::SimdFloatDiv            0      0.00%     85.74% # Class of committed instruction
system.cpu1.commit.op_class_0::SimdFloatMisc            0      0.00%     85.74% # Class of committed instruction
system.cpu1.commit.op_class_0::SimdFloatMult            0      0.00%     85.74% # Class of committed instruction
system.cpu1.commit.op_class_0::SimdFloatMultAcc            0      0.00%     85.74% # Class of committed instruction
system.cpu1.commit.op_class_0::SimdFloatSqrt            0      0.00%     85.74% # Class of committed instruction
system.cpu1.commit.op_class_0::SimdReduceAdd            0      0.00%     85.74% # Class of committed instruction
system.cpu1.commit.op_class_0::SimdReduceAlu            0      0.00%     85.74% # Class of committed instruction
system.cpu1.commit.op_class_0::SimdReduceCmp            0      0.00%     85.74% # Class of committed instruction
system.cpu1.commit.op_class_0::SimdFloatReduceAdd            0      0.00%     85.74% # Class of committed instruction
system.cpu1.commit.op_class_0::SimdFloatReduceCmp            0      0.00%     85.74% # Class of committed instruction
system.cpu1.commit.op_class_0::SimdAes              0      0.00%     85.74% # Class of committed instruction
system.cpu1.commit.op_class_0::SimdAesMix            0      0.00%     85.74% # Class of committed instruction
system.cpu1.commit.op_class_0::SimdSha1Hash            0      0.00%     85.74% # Class of committed instruction
system.cpu1.commit.op_class_0::SimdSha1Hash2            0      0.00%     85.74% # Class of committed instruction
system.cpu1.commit.op_class_0::SimdSha256Hash            0      0.00%     85.74% # Class of committed instruction
system.cpu1.commit.op_class_0::SimdSha256Hash2            0      0.00%     85.74% # Class of committed instruction
system.cpu1.commit.op_class_0::SimdShaSigma2            0      0.00%     85.74% # Class of committed instruction
system.cpu1.commit.op_class_0::SimdShaSigma3            0      0.00%     85.74% # Class of committed instruction
system.cpu1.commit.op_class_0::SimdPredAlu            0      0.00%     85.74% # Class of committed instruction
system.cpu1.commit.op_class_0::MemRead            117      1.85%     87.60% # Class of committed instruction
system.cpu1.commit.op_class_0::MemWrite           763     12.11%     99.71% # Class of committed instruction
system.cpu1.commit.op_class_0::FloatMemRead            0      0.00%     99.71% # Class of committed instruction
system.cpu1.commit.op_class_0::FloatMemWrite           18      0.28%     99.99% # Class of committed instruction
system.cpu1.commit.op_class_0::IprAccess            0      0.00%     99.99% # Class of committed instruction
system.cpu1.commit.op_class_0::InstPrefetch            0      0.00%     99.99% # Class of committed instruction
system.cpu1.commit.op_class_0::total             6300                       # Class of committed instruction
system.cpu1.commit.refs                           898                       # Number of memory references committed
system.cpu1.commit.swp_count                        0                       # Number of s/w prefetches committed
system.cpu1.commit.vec_insts                        0                       # Number of committed Vector instructions.
system.cpu1.committedInsts                       6292                       # Number of Instructions Simulated
system.cpu1.committedOps                         6300                       # Number of Ops (including micro ops) Simulated
system.cpu1.cpi                              2.736331                       # CPI: Cycles Per Instruction
system.cpu1.cpi_total                        2.736331                       # CPI: Total CPI of All Threads
system.cpu1.decode.BlockedCycles                 4309                       # Number of cycles decode is blocked
system.cpu1.decode.BranchMispred                   38                       # Number of times decode detected a branch misprediction
system.cpu1.decode.BranchResolved                 685                       # Number of times decode resolved a branch
system.cpu1.decode.DecodedInsts                  6823                       # Number of instructions handled by decode
system.cpu1.decode.IdleCycles                    2137                       # Number of cycles decode is idle
system.cpu1.decode.RunCycles                     1630                       # Number of cycles decode is running
system.cpu1.decode.SquashCycles                    66                       # Number of cycles decode is squashing
system.cpu1.decode.SquashedInsts                   56                       # Number of squashed instructions handled by decode
system.cpu1.decode.UnblockCycles                  465                       # Number of cycles decode is unblocking
system.cpu1.dtb.accesses                            0                       # DTB accesses
system.cpu1.dtb.hits                                0                       # DTB hits
system.cpu1.dtb.misses                              0                       # DTB misses
system.cpu1.dtb.read_accesses                       0                       # DTB read accesses
system.cpu1.dtb.read_hits                           0                       # DTB read hits
system.cpu1.dtb.read_misses                         0                       # DTB read misses
system.cpu1.dtb.write_accesses                      0                       # DTB write accesses
system.cpu1.dtb.write_hits                          0                       # DTB write hits
system.cpu1.dtb.write_misses                        0                       # DTB write misses
system.cpu1.fetch.Branches                        889                       # Number of branches that fetch encountered
system.cpu1.fetch.CacheLines                      197                       # Number of cache lines fetched
system.cpu1.fetch.Cycles                         6143                       # Number of cycles fetch has run and was not squashing or blocked
system.cpu1.fetch.IcacheSquashes                   58                       # Number of outstanding Icache misses that were squashed
system.cpu1.fetch.IcacheWaitRetryStallCycles           13                       # Number of stall cycles due to full MSHR
system.cpu1.fetch.Insts                          7017                       # Number of instructions fetch has processed
system.cpu1.fetch.MiscStallCycles                   2                       # Number of cycles fetch has spent waiting on interrupts, or bad addresses, or out of MSHRs
system.cpu1.fetch.SquashCycles                    208                       # Number of cycles fetch has spent squashing
system.cpu1.fetch.branchRate                 0.051635                       # Number of branch fetches per cycle
system.cpu1.fetch.icacheStallCycles              2345                       # Number of cycles fetch is stalled on an Icache miss
system.cpu1.fetch.predictedBranches               658                       # Number of branches that fetch has predicted taken
system.cpu1.fetch.rate                       0.407562                       # Number of inst fetches per cycle
system.cpu1.fetch.rateDist::samples              8607                       # Number of instructions fetched each cycle (Total)
system.cpu1.fetch.rateDist::mean             0.817474                       # Number of instructions fetched each cycle (Total)
system.cpu1.fetch.rateDist::stdev            1.037427                       # Number of instructions fetched each cycle (Total)
system.cpu1.fetch.rateDist::underflows              0      0.00%      0.00% # Number of instructions fetched each cycle (Total)
system.cpu1.fetch.rateDist::0                    4518     52.49%     52.49% # Number of instructions fetched each cycle (Total)
system.cpu1.fetch.rateDist::1                    1942     22.56%     75.05% # Number of instructions fetched each cycle (Total)
system.cpu1.fetch.rateDist::2                    1456     16.91%     91.97% # Number of instructions fetched each cycle (Total)
system.cpu1.fetch.rateDist::3                     649      7.54%     99.51% # Number of instructions fetched each cycle (Total)
system.cpu1.fetch.rateDist::4                      11      0.12%     99.63% # Number of instructions fetched each cycle (Total)
system.cpu1.fetch.rateDist::5                      16      0.18%     99.82% # Number of instructions fetched each cycle (Total)
system.cpu1.fetch.rateDist::6                       3      0.03%     99.86% # Number of instructions fetched each cycle (Total)
system.cpu1.fetch.rateDist::7                       3      0.03%     99.89% # Number of instructions fetched each cycle (Total)
system.cpu1.fetch.rateDist::8                       9      0.10%     99.99% # Number of instructions fetched each cycle (Total)
system.cpu1.fetch.rateDist::overflows               0      0.00%     99.99% # Number of instructions fetched each cycle (Total)
system.cpu1.fetch.rateDist::min_value               0                       # Number of instructions fetched each cycle (Total)
system.cpu1.fetch.rateDist::max_value               8                       # Number of instructions fetched each cycle (Total)
system.cpu1.fetch.rateDist::total                8607                       # Number of instructions fetched each cycle (Total)
system.cpu1.fp_regfile_reads                       18                       # number of floating regfile reads
system.cpu1.fp_regfile_writes                       3                       # number of floating regfile writes
system.cpu1.idleCycles                           8610                       # Total number of cycles that the CPU has spent unscheduled due to idling
system.cpu1.iew.branchMispredicts                  63                       # Number of branch mispredicts detected at execute
system.cpu1.iew.exec_branches                     781                       # Number of branches executed
system.cpu1.iew.exec_nop                            0                       # number of nop insts executed
system.cpu1.iew.exec_rate                    0.377882                       # Inst execution rate
system.cpu1.iew.exec_refs                         950                       # number of memory reference insts executed
system.cpu1.iew.exec_stores                       796                       # Number of stores executed
system.cpu1.iew.exec_swp                            0                       # number of swp insts executed
system.cpu1.iew.iewBlockCycles                     42                       # Number of cycles IEW is blocking
system.cpu1.iew.iewDispLoadInsts                  143                       # Number of dispatched load instructions
system.cpu1.iew.iewDispNonSpecInsts                18                       # Number of dispatched non-speculative instructions
system.cpu1.iew.iewDispSquashedInsts               47                       # Number of squashed instructions skipped by dispatch
system.cpu1.iew.iewDispStoreInsts                 818                       # Number of dispatched store instructions
system.cpu1.iew.iewDispatchedInsts               6636                       # Number of instructions dispatched to IQ
system.cpu1.iew.iewExecLoadInsts                  154                       # Number of load instructions executed
system.cpu1.iew.iewExecSquashedInsts               50                       # Number of squashed instructions skipped in execute
system.cpu1.iew.iewExecutedInsts                 6506                       # Number of executed instructions
system.cpu1.iew.iewIQFullEvents                     0                       # Number of times the IQ has become full, causing a stall
system.cpu1.iew.iewIdleCycles                       0                       # Number of cycles IEW is idle
system.cpu1.iew.iewLSQFullEvents                    0                       # Number of times the LSQ has become full, causing a stall
system.cpu1.iew.iewSquashCycles                    66                       # Number of cycles IEW is squashing
system.cpu1.iew.iewUnblockCycles                    2                       # Number of cycles IEW is unblocking
system.cpu1.iew.lsq.thread0.blockedLoads            0                       # Number of blocked loads due to partial load-store forwarding
system.cpu1.iew.lsq.thread0.cacheBlocked           22                       # Number of times an access to memory failed due to the cache being blocked
system.cpu1.iew.lsq.thread0.forwLoads               3                       # Number of loads that had data forwarded from stores
system.cpu1.iew.lsq.thread0.ignoredResponses            2                       # Number of memory responses ignored because the instruction is squashed
system.cpu1.iew.lsq.thread0.invAddrLoads            0                       # Number of loads ignored due to an invalid address
system.cpu1.iew.lsq.thread0.invAddrSwpfs            0                       # Number of software prefetches ignored due to an invalid address
system.cpu1.iew.lsq.thread0.memOrderViolation            1                       # Number of memory ordering violations
system.cpu1.iew.lsq.thread0.rescheduledLoads            0                       # Number of loads that were rescheduled
system.cpu1.iew.lsq.thread0.squashedLoads           32                       # Number of loads squashed
system.cpu1.iew.lsq.thread0.squashedStores           31                       # Number of stores squashed
system.cpu1.iew.memOrderViolationEvents             1                       # Number of memory order violations
system.cpu1.iew.predictedNotTakenIncorrect           62                       # Number of branches that were predicted not taken incorrectly
system.cpu1.iew.predictedTakenIncorrect             1                       # Number of branches that were predicted taken incorrectly
system.cpu1.iew.wb_consumers                     5665                       # num instructions consuming a value
system.cpu1.iew.wb_count                         6474                       # cumulative count of insts written-back
system.cpu1.iew.wb_fanout                    0.749514                       # average fanout of values written-back
system.cpu1.iew.wb_producers                     4246                       # num instructions producing a value
system.cpu1.iew.wb_rate                      0.376023                       # insts written-back per cycle
system.cpu1.iew.wb_sent                          6478                       # cumulative count of insts sent to commit
system.cpu1.int_regfile_reads                   10361                       # number of integer regfile reads
system.cpu1.int_regfile_writes                   4975                       # number of integer regfile writes
system.cpu1.ipc                              0.365452                       # IPC: Instructions Per Cycle
system.cpu1.ipc_total                        0.365452                       # IPC: Total IPC of All Threads
system.cpu1.iq.FU_type_0::No_OpClass               15      0.22%      0.22% # Type of FU issued
system.cpu1.iq.FU_type_0::IntAlu                 4955     75.57%     75.80% # Type of FU issued
system.cpu1.iq.FU_type_0::IntMult                 624      9.51%     85.32% # Type of FU issued
system.cpu1.iq.FU_type_0::IntDiv                    2      0.03%     85.35% # Type of FU issued
system.cpu1.iq.FU_type_0::FloatAdd                  0      0.00%     85.35% # Type of FU issued
system.cpu1.iq.FU_type_0::FloatCmp                  0      0.00%     85.35% # Type of FU issued
system.cpu1.iq.FU_type_0::FloatCvt                  0      0.00%     85.35% # Type of FU issued
system.cpu1.iq.FU_type_0::FloatMult                 0      0.00%     85.35% # Type of FU issued
system.cpu1.iq.FU_type_0::FloatMultAcc              0      0.00%     85.35% # Type of FU issued
system.cpu1.iq.FU_type_0::FloatDiv                  0      0.00%     85.35% # Type of FU issued
system.cpu1.iq.FU_type_0::FloatMisc                 0      0.00%     85.35% # Type of FU issued
system.cpu1.iq.FU_type_0::FloatSqrt                 0      0.00%     85.35% # Type of FU issued
system.cpu1.iq.FU_type_0::SimdAdd                   0      0.00%     85.35% # Type of FU issued
system.cpu1.iq.FU_type_0::SimdAddAcc                0      0.00%     85.35% # Type of FU issued
system.cpu1.iq.FU_type_0::SimdAlu                   0      0.00%     85.35% # Type of FU issued
system.cpu1.iq.FU_type_0::SimdCmp                   0      0.00%     85.35% # Type of FU issued
system.cpu1.iq.FU_type_0::SimdCvt                   0      0.00%     85.35% # Type of FU issued
system.cpu1.iq.FU_type_0::SimdMisc                  0      0.00%     85.35% # Type of FU issued
system.cpu1.iq.FU_type_0::SimdMult                  0      0.00%     85.35% # Type of FU issued
system.cpu1.iq.FU_type_0::SimdMultAcc               0      0.00%     85.35% # Type of FU issued
system.cpu1.iq.FU_type_0::SimdShift                 0      0.00%     85.35% # Type of FU issued
system.cpu1.iq.FU_type_0::SimdShiftAcc              0      0.00%     85.35% # Type of FU issued
system.cpu1.iq.FU_type_0::SimdDiv                   0      0.00%     85.35% # Type of FU issued
system.cpu1.iq.FU_type_0::SimdSqrt                  0      0.00%     85.35% # Type of FU issued
system.cpu1.iq.FU_type_0::SimdFloatAdd              0      0.00%     85.35% # Type of FU issued
system.cpu1.iq.FU_type_0::SimdFloatAlu              0      0.00%     85.35% # Type of FU issued
system.cpu1.iq.FU_type_0::SimdFloatCmp              0      0.00%     85.35% # Type of FU issued
system.cpu1.iq.FU_type_0::SimdFloatCvt              0      0.00%     85.35% # Type of FU issued
system.cpu1.iq.FU_type_0::SimdFloatDiv              0      0.00%     85.35% # Type of FU issued
system.cpu1.iq.FU_type_0::SimdFloatMisc             0      0.00%     85.35% # Type of FU issued
system.cpu1.iq.FU_type_0::SimdFloatMult             0      0.00%     85.35% # Type of FU issued
system.cpu1.iq.FU_type_0::SimdFloatMultAcc            0      0.00%     85.35% # Type of FU issued
system.cpu1.iq.FU_type_0::SimdFloatSqrt             0      0.00%     85.35% # Type of FU issued
system.cpu1.iq.FU_type_0::SimdReduceAdd             0      0.00%     85.35% # Type of FU issued
system.cpu1.iq.FU_type_0::SimdReduceAlu             0      0.00%     85.35% # Type of FU issued
system.cpu1.iq.FU_type_0::SimdReduceCmp             0      0.00%     85.35% # Type of FU issued
system.cpu1.iq.FU_type_0::SimdFloatReduceAdd            0      0.00%     85.35% # Type of FU issued
system.cpu1.iq.FU_type_0::SimdFloatReduceCmp            0      0.00%     85.35% # Type of FU issued
system.cpu1.iq.FU_type_0::SimdAes                   0      0.00%     85.35% # Type of FU issued
system.cpu1.iq.FU_type_0::SimdAesMix                0      0.00%     85.35% # Type of FU issued
system.cpu1.iq.FU_type_0::SimdSha1Hash              0      0.00%     85.35% # Type of FU issued
system.cpu1.iq.FU_type_0::SimdSha1Hash2             0      0.00%     85.35% # Type of FU issued
system.cpu1.iq.FU_type_0::SimdSha256Hash            0      0.00%     85.35% # Type of FU issued
system.cpu1.iq.FU_type_0::SimdSha256Hash2            0      0.00%     85.35% # Type of FU issued
system.cpu1.iq.FU_type_0::SimdShaSigma2             0      0.00%     85.35% # Type of FU issued
system.cpu1.iq.FU_type_0::SimdShaSigma3             0      0.00%     85.35% # Type of FU issued
system.cpu1.iq.FU_type_0::SimdPredAlu               0      0.00%     85.35% # Type of FU issued
system.cpu1.iq.FU_type_0::MemRead                 149      2.27%     87.62% # Type of FU issued
system.cpu1.iq.FU_type_0::MemWrite                778     11.86%     99.49% # Type of FU issued
system.cpu1.iq.FU_type_0::FloatMemRead             15      0.22%     99.72% # Type of FU issued
system.cpu1.iq.FU_type_0::FloatMemWrite            18      0.27%     99.99% # Type of FU issued
system.cpu1.iq.FU_type_0::IprAccess                 0      0.00%     99.99% # Type of FU issued
system.cpu1.iq.FU_type_0::InstPrefetch              0      0.00%     99.99% # Type of FU issued
system.cpu1.iq.FU_type_0::total                  6556                       # Type of FU issued
system.cpu1.iq.fp_alu_accesses                     37                       # Number of floating point alu accesses
system.cpu1.iq.fp_inst_queue_reads                 70                       # Number of floating instruction queue reads
system.cpu1.iq.fp_inst_queue_wakeup_accesses           21                       # Number of floating instruction queue wakeup accesses
system.cpu1.iq.fp_inst_queue_writes                24                       # Number of floating instruction queue writes
system.cpu1.iq.fu_busy_cnt                         12                       # FU busy when requested
system.cpu1.iq.fu_busy_rate                  0.001830                       # FU busy rate (busy events/executed inst)
system.cpu1.iq.fu_full::No_OpClass                  0      0.00%      0.00% # attempts to use FU when none available
system.cpu1.iq.fu_full::IntAlu                      0      0.00%      0.00% # attempts to use FU when none available
system.cpu1.iq.fu_full::IntMult                     0      0.00%      0.00% # attempts to use FU when none available
system.cpu1.iq.fu_full::IntDiv                      0      0.00%      0.00% # attempts to use FU when none available
system.cpu1.iq.fu_full::FloatAdd                    0      0.00%      0.00% # attempts to use FU when none available
system.cpu1.iq.fu_full::FloatCmp                    0      0.00%      0.00% # attempts to use FU when none available
system.cpu1.iq.fu_full::FloatCvt                    0      0.00%      0.00% # attempts to use FU when none available
system.cpu1.iq.fu_full::FloatMult                   0      0.00%      0.00% # attempts to use FU when none available
system.cpu1.iq.fu_full::FloatMultAcc                0      0.00%      0.00% # attempts to use FU when none available
system.cpu1.iq.fu_full::FloatDiv                    0      0.00%      0.00% # attempts to use FU when none available
system.cpu1.iq.fu_full::FloatMisc                   0      0.00%      0.00% # attempts to use FU when none available
system.cpu1.iq.fu_full::FloatSqrt                   0      0.00%      0.00% # attempts to use FU when none available
system.cpu1.iq.fu_full::SimdAdd                     0      0.00%      0.00% # attempts to use FU when none available
system.cpu1.iq.fu_full::SimdAddAcc                  0      0.00%      0.00% # attempts to use FU when none available
system.cpu1.iq.fu_full::SimdAlu                     0      0.00%      0.00% # attempts to use FU when none available
system.cpu1.iq.fu_full::SimdCmp                     0      0.00%      0.00% # attempts to use FU when none available
system.cpu1.iq.fu_full::SimdCvt                     0      0.00%      0.00% # attempts to use FU when none available
system.cpu1.iq.fu_full::SimdMisc                    0      0.00%      0.00% # attempts to use FU when none available
system.cpu1.iq.fu_full::SimdMult                    0      0.00%      0.00% # attempts to use FU when none available
system.cpu1.iq.fu_full::SimdMultAcc                 0      0.00%      0.00% # attempts to use FU when none available
system.cpu1.iq.fu_full::SimdShift                   0      0.00%      0.00% # attempts to use FU when none available
system.cpu1.iq.fu_full::SimdShiftAcc                0      0.00%      0.00% # attempts to use FU when none available
system.cpu1.iq.fu_full::SimdDiv                     0      0.00%      0.00% # attempts to use FU when none available
system.cpu1.iq.fu_full::SimdSqrt                    0      0.00%      0.00% # attempts to use FU when none available
system.cpu1.iq.fu_full::SimdFloatAdd                0      0.00%      0.00% # attempts to use FU when none available
system.cpu1.iq.fu_full::SimdFloatAlu                0      0.00%      0.00% # attempts to use FU when none available
system.cpu1.iq.fu_full::SimdFloatCmp                0      0.00%      0.00% # attempts to use FU when none available
system.cpu1.iq.fu_full::SimdFloatCvt                0      0.00%      0.00% # attempts to use FU when none available
system.cpu1.iq.fu_full::SimdFloatDiv                0      0.00%      0.00% # attempts to use FU when none available
system.cpu1.iq.fu_full::SimdFloatMisc               0      0.00%      0.00% # attempts to use FU when none available
system.cpu1.iq.fu_full::SimdFloatMult               0      0.00%      0.00% # attempts to use FU when none available
system.cpu1.iq.fu_full::SimdFloatMultAcc            0      0.00%      0.00% # attempts to use FU when none available
system.cpu1.iq.fu_full::SimdFloatSqrt               0      0.00%      0.00% # attempts to use FU when none available
system.cpu1.iq.fu_full::SimdReduceAdd               0      0.00%      0.00% # attempts to use FU when none available
system.cpu1.iq.fu_full::SimdReduceAlu               0      0.00%      0.00% # attempts to use FU when none available
system.cpu1.iq.fu_full::SimdReduceCmp               0      0.00%      0.00% # attempts to use FU when none available
system.cpu1.iq.fu_full::SimdFloatReduceAdd            0      0.00%      0.00% # attempts to use FU when none available
system.cpu1.iq.fu_full::SimdFloatReduceCmp            0      0.00%      0.00% # attempts to use FU when none available
system.cpu1.iq.fu_full::SimdAes                     0      0.00%      0.00% # attempts to use FU when none available
system.cpu1.iq.fu_full::SimdAesMix                  0      0.00%      0.00% # attempts to use FU when none available
system.cpu1.iq.fu_full::SimdSha1Hash                0      0.00%      0.00% # attempts to use FU when none available
system.cpu1.iq.fu_full::SimdSha1Hash2               0      0.00%      0.00% # attempts to use FU when none available
system.cpu1.iq.fu_full::SimdSha256Hash              0      0.00%      0.00% # attempts to use FU when none available
system.cpu1.iq.fu_full::SimdSha256Hash2             0      0.00%      0.00% # attempts to use FU when none available
system.cpu1.iq.fu_full::SimdShaSigma2               0      0.00%      0.00% # attempts to use FU when none available
system.cpu1.iq.fu_full::SimdShaSigma3               0      0.00%      0.00% # attempts to use FU when none available
system.cpu1.iq.fu_full::SimdPredAlu                 0      0.00%      0.00% # attempts to use FU when none available
system.cpu1.iq.fu_full::MemRead                     3     25.00%     25.00% # attempts to use FU when none available
[...]
system.cpu1.dcache.ReadReq_miss_rate::.cpu1.data     0.327999                       # miss rate for ReadReq accesses
system.cpu1.dcache.ReadReq_miss_rate::total     0.327999                       # miss rate for ReadReq accesses
system.cpu1.dcache.ReadReq_avg_miss_latency::.cpu1.data 74756.097560                       # average ReadReq miss latency
system.cpu1.dcache.ReadReq_avg_miss_latency::total 74756.097560                       # average ReadReq miss latency
system.cpu1.dcache.ReadReq_mshr_hits::.cpu1.data           11                       # number of ReadReq MSHR hits
system.cpu1.dcache.ReadReq_mshr_hits::total           11                       # number of ReadReq MSHR hits
system.cpu1.dcache.ReadReq_mshr_misses::.cpu1.data           30                       # number of ReadReq MSHR misses
system.cpu1.dcache.ReadReq_mshr_misses::total           30                       # number of ReadReq MSHR misses
system.cpu1.dcache.ReadReq_mshr_miss_latency::.cpu1.data      2507500                       # number of ReadReq MSHR miss cycles
system.cpu1.dcache.ReadReq_mshr_miss_latency::total      2507500                       # number of ReadReq MSHR miss cycles
system.cpu1.dcache.ReadReq_mshr_miss_rate::.cpu1.data     0.239999                       # mshr miss rate for ReadReq accesses
system.cpu1.dcache.ReadReq_mshr_miss_rate::total     0.239999                       # mshr miss rate for ReadReq accesses
system.cpu1.dcache.ReadReq_avg_mshr_miss_latency::.cpu1.data 83583.333333                       # average ReadReq mshr miss latency
system.cpu1.dcache.ReadReq_avg_mshr_miss_latency::total 83583.333333                       # average ReadReq mshr miss latency
system.cpu1.dcache.WriteReq_hits::.cpu1.data           74                       # number of WriteReq hits
system.cpu1.dcache.WriteReq_hits::total            74                       # number of WriteReq hits
system.cpu1.dcache.WriteReq_misses::.cpu1.data          701                       # number of WriteReq misses
system.cpu1.dcache.WriteReq_misses::total          701                       # number of WriteReq misses
system.cpu1.dcache.WriteReq_miss_latency::.cpu1.data     62554982                       # number of WriteReq miss cycles
system.cpu1.dcache.WriteReq_miss_latency::total     62554982                       # number of WriteReq miss cycles
system.cpu1.dcache.WriteReq_accesses::.cpu1.data          775                       # number of WriteReq accesses(hits+misses)
system.cpu1.dcache.WriteReq_accesses::total          775                       # number of WriteReq accesses(hits+misses)
system.cpu1.dcache.WriteReq_miss_rate::.cpu1.data     0.904516                       # miss rate for WriteReq accesses
system.cpu1.dcache.WriteReq_miss_rate::total     0.904516                       # miss rate for WriteReq accesses
system.cpu1.dcache.WriteReq_avg_miss_latency::.cpu1.data 89236.778887                       # average WriteReq miss latency
system.cpu1.dcache.WriteReq_avg_miss_latency::total 89236.778887                       # average WriteReq miss latency
system.cpu1.dcache.WriteReq_mshr_hits::.cpu1.data          599                       # number of WriteReq MSHR hits
system.cpu1.dcache.WriteReq_mshr_hits::total          599                       # number of WriteReq MSHR hits
system.cpu1.dcache.WriteReq_mshr_misses::.cpu1.data          102                       # number of WriteReq MSHR misses
system.cpu1.dcache.WriteReq_mshr_misses::total          102                       # number of WriteReq MSHR misses
system.cpu1.dcache.WriteReq_mshr_miss_latency::.cpu1.data      9873499                       # number of WriteReq MSHR miss cycles
system.cpu1.dcache.WriteReq_mshr_miss_latency::total      9873499                       # number of WriteReq MSHR miss cycles
system.cpu1.dcache.WriteReq_mshr_miss_rate::.cpu1.data     0.131612                       # mshr miss rate for WriteReq accesses
system.cpu1.dcache.WriteReq_mshr_miss_rate::total     0.131612                       # mshr miss rate for WriteReq accesses
system.cpu1.dcache.WriteReq_avg_mshr_miss_latency::.cpu1.data 96799.009803                       # average WriteReq mshr miss latency
system.cpu1.dcache.WriteReq_avg_mshr_miss_latency::total 96799.009803                       # average WriteReq mshr miss latency
system.cpu1.dcache.LoadLockedReq_hits::.cpu1.data            8                       # number of LoadLockedReq hits
system.cpu1.dcache.LoadLockedReq_hits::total            8                       # number of LoadLockedReq hits
system.cpu1.dcache.LoadLockedReq_accesses::.cpu1.data            8                       # number of LoadLockedReq accesses(hits+misses)
system.cpu1.dcache.LoadLockedReq_accesses::total            8                       # number of LoadLockedReq accesses(hits+misses)
system.cpu1.dcache.StoreCondReq_hits::.cpu1.data            4                       # number of StoreCondReq hits
system.cpu1.dcache.StoreCondReq_hits::total            4                       # number of StoreCondReq hits
system.cpu1.dcache.StoreCondReq_misses::.cpu1.data            2                       # number of StoreCondReq misses
system.cpu1.dcache.StoreCondReq_misses::total            2                       # number of StoreCondReq misses
system.cpu1.dcache.StoreCondReq_miss_latency::.cpu1.data        18000                       # number of StoreCondReq miss cycles
system.cpu1.dcache.StoreCondReq_miss_latency::total        18000                       # number of StoreCondReq miss cycles
system.cpu1.dcache.StoreCondReq_accesses::.cpu1.data            6                       # number of StoreCondReq accesses(hits+misses)
system.cpu1.dcache.StoreCondReq_accesses::total            6                       # number of StoreCondReq accesses(hits+misses)
system.cpu1.dcache.StoreCondReq_miss_rate::.cpu1.data     0.333333                       # miss rate for StoreCondReq accesses
system.cpu1.dcache.StoreCondReq_miss_rate::total     0.333333                       # miss rate for StoreCondReq accesses
system.cpu1.dcache.StoreCondReq_avg_miss_latency::.cpu1.data         9000                       # average StoreCondReq miss latency
system.cpu1.dcache.StoreCondReq_avg_miss_latency::total         9000                       # average StoreCondReq miss latency
system.cpu1.dcache.StoreCondReq_mshr_misses::.cpu1.data            2                       # number of StoreCondReq MSHR misses
system.cpu1.dcache.StoreCondReq_mshr_misses::total            2                       # number of StoreCondReq MSHR misses
system.cpu1.dcache.StoreCondReq_mshr_miss_latency::.cpu1.data        16000                       # number of StoreCondReq MSHR miss cycles
system.cpu1.dcache.StoreCondReq_mshr_miss_latency::total        16000                       # number of StoreCondReq MSHR miss cycles
system.cpu1.dcache.StoreCondReq_mshr_miss_rate::.cpu1.data     0.333333                       # mshr miss rate for StoreCondReq accesses
system.cpu1.dcache.StoreCondReq_mshr_miss_rate::total     0.333333                       # mshr miss rate for StoreCondReq accesses
system.cpu1.dcache.StoreCondReq_avg_mshr_miss_latency::.cpu1.data         8000                       # average StoreCondReq mshr miss latency
system.cpu1.dcache.StoreCondReq_avg_mshr_miss_latency::total         8000                       # average StoreCondReq mshr miss latency
system.cpu1.dcache.SwapReq_hits::.cpu1.data            4                       # number of SwapReq hits
system.cpu1.dcache.SwapReq_hits::total              4                       # number of SwapReq hits
system.cpu1.dcache.SwapReq_misses::.cpu1.data            2                       # number of SwapReq misses
system.cpu1.dcache.SwapReq_misses::total            2                       # number of SwapReq misses
system.cpu1.dcache.SwapReq_miss_latency::.cpu1.data         8500                       # number of SwapReq miss cycles
system.cpu1.dcache.SwapReq_miss_latency::total         8500                       # number of SwapReq miss cycles
system.cpu1.dcache.SwapReq_accesses::.cpu1.data            6                       # number of SwapReq accesses(hits+misses)
system.cpu1.dcache.SwapReq_accesses::total            6                       # number of SwapReq accesses(hits+misses)
system.cpu1.dcache.SwapReq_miss_rate::.cpu1.data     0.333333                       # miss rate for SwapReq accesses
system.cpu1.dcache.SwapReq_miss_rate::total     0.333333                       # miss rate for SwapReq accesses
system.cpu1.dcache.SwapReq_avg_miss_latency::.cpu1.data         4250                       # average SwapReq miss latency
system.cpu1.dcache.SwapReq_avg_miss_latency::total         4250                       # average SwapReq miss latency
system.cpu1.dcache.SwapReq_mshr_misses::.cpu1.data            2                       # number of SwapReq MSHR misses
system.cpu1.dcache.SwapReq_mshr_misses::total            2                       # number of SwapReq MSHR misses
system.cpu1.dcache.SwapReq_mshr_miss_latency::.cpu1.data         6500                       # number of SwapReq MSHR miss cycles
system.cpu1.dcache.SwapReq_mshr_miss_latency::total         6500                       # number of SwapReq MSHR miss cycles
system.cpu1.dcache.SwapReq_mshr_miss_rate::.cpu1.data     0.333333                       # mshr miss rate for SwapReq accesses
system.cpu1.dcache.SwapReq_mshr_miss_rate::total     0.333333                       # mshr miss rate for SwapReq accesses
system.cpu1.dcache.SwapReq_avg_mshr_miss_latency::.cpu1.data         3250                       # average SwapReq mshr miss latency
system.cpu1.dcache.SwapReq_avg_mshr_miss_latency::total         3250                       # average SwapReq mshr miss latency
system.cpu1.dcache.tags.pwrStateResidencyTicks::UNDEFINED  49896388500                       # Cumulative time (in ticks) in various power states
system.cpu1.dcache.tags.tagsinuse           29.854817                       # Cycle average of tags in use
system.cpu1.dcache.tags.total_refs                312                       # Total number of references to valid blocks.
system.cpu1.dcache.tags.sampled_refs              132                       # Sample count of references to valid blocks.
system.cpu1.dcache.tags.avg_refs             2.363636                       # Average number of references to valid blocks.
system.cpu1.dcache.tags.warmup_cycle        239254500                       # Cycle when the warmup percentage was hit.
system.cpu1.dcache.tags.occ_blocks::.cpu1.data    29.854817                       # Average occupied blocks per requestor
system.cpu1.dcache.tags.occ_percent::.cpu1.data     0.932963                       # Average percentage of cache occupancy
system.cpu1.dcache.tags.occ_percent::total     0.932963                       # Average percentage of cache occupancy
system.cpu1.dcache.tags.occ_task_id_blocks::1024           30                       # Occupied blocks per task id
system.cpu1.dcache.tags.age_task_id_blocks_1024::4           30                       # Occupied blocks per task id
system.cpu1.dcache.tags.occ_task_id_percent::1024     0.937500                       # Percentage of cache occupancy per task id
system.cpu1.dcache.tags.tag_accesses             1972                       # Number of tag accesses
system.cpu1.dcache.tags.data_accesses            1972                       # Number of data accesses
system.cpu_clk_domain.clock                       500                       # Clock period in ticks
system.tol2bus.pwrStateResidencyTicks::UNDEFINED  49896388500                       # Cumulative time (in ticks) in various power states
system.tol2bus.trans_dist::ReadResp            514750                       # Transaction distribution
system.tol2bus.trans_dist::WritebackDirty       523251                       # Transaction distribution
system.tol2bus.trans_dist::WritebackClean         6583                       # Transaction distribution
system.tol2bus.trans_dist::CleanEvict           18935                       # Transaction distribution
system.tol2bus.trans_dist::UpgradeReq              13                       # Transaction distribution
system.tol2bus.trans_dist::SCUpgradeReq             7                       # Transaction distribution
system.tol2bus.trans_dist::UpgradeResp             20                       # Transaction distribution
system.tol2bus.trans_dist::SCUpgradeFailReq            2                       # Transaction distribution
system.tol2bus.trans_dist::UpgradeFailResp            2                       # Transaction distribution
system.tol2bus.trans_dist::ReadExReq            18423                       # Transaction distribution
system.tol2bus.trans_dist::ReadExResp           18423                       # Transaction distribution
system.tol2bus.trans_dist::ReadCleanReq          6708                       # Transaction distribution
system.tol2bus.trans_dist::ReadSharedReq       508042                       # Transaction distribution
system.tol2bus.trans_dist::InvalidateReq           21                       # Transaction distribution
system.tol2bus.trans_dist::InvalidateResp           21                       # Transaction distribution
system.tol2bus.pkt_count_system.cpu0.icache.mem_side::system.l2.cpu_side        19285                       # Packet count per connected master and slave (bytes)
system.tol2bus.pkt_count_system.cpu0.dcache.mem_side::system.l2.cpu_side      1578209                       # Packet count per connected master and slave (bytes)
system.tol2bus.pkt_count_system.cpu1.icache.mem_side::system.l2.cpu_side          222                       # Packet count per connected master and slave (bytes)
system.tol2bus.pkt_count_system.cpu1.dcache.mem_side::system.l2.cpu_side          351                       # Packet count per connected master and slave (bytes)
system.tol2bus.pkt_count_system.cpu2.icache.mem_side::system.l2.cpu_side          245                       # Packet count per connected master and slave (bytes)
system.tol2bus.pkt_count_system.cpu2.dcache.mem_side::system.l2.cpu_side          355                       # Packet count per connected master and slave (bytes)
system.tol2bus.pkt_count_system.cpu3.icache.mem_side::system.l2.cpu_side          247                       # Packet count per connected master and slave (bytes)
system.tol2bus.pkt_count_system.cpu3.dcache.mem_side::system.l2.cpu_side          352                       # Packet count per connected master and slave (bytes)
system.tol2bus.pkt_count::total               1599266                       # Packet count per connected master and slave (bytes)
system.tol2bus.pkt_size_system.cpu0.icache.mem_side::system.l2.cpu_side       822144                       # Cumulative packet size per connected master and slave (bytes)
system.tol2bus.pkt_size_system.cpu0.dcache.mem_side::system.l2.cpu_side     66320640                       # Cumulative packet size per connected master and slave (bytes)
system.tol2bus.pkt_size_system.cpu1.icache.mem_side::system.l2.cpu_side         8832                       # Cumulative packet size per connected master and slave (bytes)
system.tol2bus.pkt_size_system.cpu1.dcache.mem_side::system.l2.cpu_side        12800                       # Cumulative packet size per connected master and slave (bytes)
system.tol2bus.pkt_size_system.cpu2.icache.mem_side::system.l2.cpu_side         9792                       # Cumulative packet size per connected master and slave (bytes)
system.tol2bus.pkt_size_system.cpu2.dcache.mem_side::system.l2.cpu_side        12736                       # Cumulative packet size per connected master and slave (bytes)
system.tol2bus.pkt_size_system.cpu3.icache.mem_side::system.l2.cpu_side         9856                       # Cumulative packet size per connected master and slave (bytes)
system.tol2bus.pkt_size_system.cpu3.dcache.mem_side::system.l2.cpu_side        12544                       # Cumulative packet size per connected master and slave (bytes)
system.tol2bus.pkt_size::total               67209344                       # Cumulative packet size per connected master and slave (bytes)
system.tol2bus.snoops                           15935                       # Total snoops (count)
system.tol2bus.snoopTraffic                    823232                       # Total snoop traffic (bytes)
system.tol2bus.snoop_fanout::samples           549082                       # Request fanout histogram
system.tol2bus.snoop_fanout::mean            0.031410                       # Request fanout histogram
system.tol2bus.snoop_fanout::stdev           0.259036                       # Request fanout histogram
system.tol2bus.snoop_fanout::underflows             0      0.00%      0.00% # Request fanout histogram
system.tol2bus.snoop_fanout::0                 538567     98.08%     98.08% # Request fanout histogram
system.tol2bus.snoop_fanout::1                   7099      1.29%     99.37% # Request fanout histogram
system.tol2bus.snoop_fanout::2                    121      0.02%     99.39% # Request fanout histogram
system.tol2bus.snoop_fanout::3                   3274      0.59%     99.99% # Request fanout histogram
system.tol2bus.snoop_fanout::4                     21      0.00%     99.99% # Request fanout histogram
system.tol2bus.snoop_fanout::5                      0      0.00%     99.99% # Request fanout histogram
system.tol2bus.snoop_fanout::6                      0      0.00%     99.99% # Request fanout histogram
system.tol2bus.snoop_fanout::7                      0      0.00%     99.99% # Request fanout histogram
system.tol2bus.snoop_fanout::8                      0      0.00%     99.99% # Request fanout histogram
system.tol2bus.snoop_fanout::overflows              0      0.00%     99.99% # Request fanout histogram
system.tol2bus.snoop_fanout::min_value              0                       # Request fanout histogram
system.tol2bus.snoop_fanout::max_value              4                       # Request fanout histogram
system.tol2bus.snoop_fanout::total             549082                       # Request fanout histogram
system.tol2bus.reqLayer0.occupancy         1050084999                       # Layer occupancy (ticks)
system.tol2bus.reqLayer0.utilization              2.1                       # Layer utilization (%)
system.tol2bus.respLayer5.occupancy            204997                       # Layer occupancy (ticks)
system.tol2bus.respLayer5.utilization             0.0                       # Layer utilization (%)
system.tol2bus.respLayer4.occupancy            144980                       # Layer occupancy (ticks)
system.tol2bus.respLayer4.utilization             0.0                       # Layer utilization (%)
system.tol2bus.respLayer7.occupancy            207994                       # Layer occupancy (ticks)
system.tol2bus.respLayer7.utilization             0.0                       # Layer utilization (%)
system.tol2bus.respLayer6.occupancy            146482                       # Layer occupancy (ticks)
system.tol2bus.respLayer6.utilization             0.0                       # Layer utilization (%)
system.tol2bus.respLayer1.occupancy         789117494                       # Layer occupancy (ticks)
system.tol2bus.respLayer1.utilization             1.5                       # Layer utilization (%)
system.tol2bus.respLayer0.occupancy           9667479                       # Layer occupancy (ticks)
system.tol2bus.respLayer0.utilization             0.0                       # Layer utilization (%)
system.tol2bus.respLayer3.occupancy            198000                       # Layer occupancy (ticks)
system.tol2bus.respLayer3.utilization             0.0                       # Layer utilization (%)
system.tol2bus.respLayer2.occupancy            126998                       # Layer occupancy (ticks)
system.tol2bus.respLayer2.utilization             0.0                       # Layer utilization (%)

---------- End Simulation Statistics   ----------
