
---------- Begin Simulation Statistics ----------
final_tick                               1274677304000                       # Number of ticks from beginning of simulation (restored from checkpoints and never reset)
host_inst_rate                                  63586                       # Simulator instruction rate (inst/s)
host_mem_usage                                 702508                       # Number of bytes of host memory used
host_op_rate                                    63772                       # Simulator op (including micro ops) rate (op/s)
host_seconds                                 22593.17                       # Real time elapsed on the host
host_tick_rate                               56418704                       # Simulator tick rate (ticks/s)
sim_freq                                 1000000000000                       # Frequency of simulated ticks
sim_insts                                  1436618376                       # Number of instructions simulated
sim_ops                                    1440822135                       # Number of ops (including micro ops) simulated
sim_seconds                                  1.274677                       # Number of seconds simulated
sim_ticks                                1274677304000                       # Number of ticks simulated
system.cpu0.branchPred.BTBCorrect                   0                       # Number of correct BTB predictions (this stat may not work properly.
system.cpu0.branchPred.BTBHitPct            87.286662                       # BTB Hit Percentage
system.cpu0.branchPred.BTBHits              177465303                       # Number of BTB hits
system.cpu0.branchPred.BTBLookups           203313197                       # Number of BTB lookups
system.cpu0.branchPred.RASInCorrect                 0                       # Number of incorrect RAS predictions.
system.cpu0.branchPred.condIncorrect         13452046                       # Number of conditional branches incorrect
system.cpu0.branchPred.condPredicted        273065123                       # Number of conditional branches predicted
system.cpu0.branchPred.indirectHits          21644677                       # Number of indirect target hits.
system.cpu0.branchPred.indirectLookups       23130112                       # Number of indirect predictor lookups.
system.cpu0.branchPred.indirectMisses         1485435                       # Number of indirect misses.
system.cpu0.branchPred.lookups              345819593                       # Number of BP lookups
system.cpu0.branchPred.usedRAS                      0                       # Number of times the RAS was used to get a target.
system.cpu0.branchPredindirectMispredicted      2187835                       # Number of mispredicted indirect branches.
system.cpu0.commit.amos                       2100294                       # Number of atomic instructions committed
system.cpu0.commit.branchMispredicts          8780565                       # The number of times a branch was mispredicted
system.cpu0.commit.branches                 329546460                       # Number of branches committed
system.cpu0.commit.bw_lim_events             35176746                       # number cycles where commit BW limit reached
system.cpu0.commit.commitNonSpecStalls        6309784                       # The number of times commit has been forced to stall to communicate backwards
system.cpu0.commit.commitSquashedInsts       65579746                       # The number of squashed insts skipped by commit
system.cpu0.commit.committedInsts          1316553516                       # Number of instructions committed
system.cpu0.commit.committedOps            1318657099                       # Number of ops (including micro ops) committed
system.cpu0.commit.committed_per_cycle::samples   2365762893                       # Number of insts commited each cycle
system.cpu0.commit.committed_per_cycle::mean     0.557392                       # Number of insts commited each cycle
system.cpu0.commit.committed_per_cycle::stdev     1.303649                       # Number of insts commited each cycle
system.cpu0.commit.committed_per_cycle::underflows            0      0.00%      0.00% # Number of insts commited each cycle
system.cpu0.commit.committed_per_cycle::0   1709061397     72.24%     72.24% # Number of insts commited each cycle
system.cpu0.commit.committed_per_cycle::1    406748642     17.19%     89.43% # Number of insts commited each cycle
system.cpu0.commit.committed_per_cycle::2     84934850      3.59%     93.02% # Number of insts commited each cycle
system.cpu0.commit.committed_per_cycle::3     88019717      3.72%     96.75% # Number of insts commited each cycle
system.cpu0.commit.committed_per_cycle::4     24845144      1.05%     97.80% # Number of insts commited each cycle
system.cpu0.commit.committed_per_cycle::5      8863219      0.37%     98.17% # Number of insts commited each cycle
system.cpu0.commit.committed_per_cycle::6      3923279      0.17%     98.34% # Number of insts commited each cycle
system.cpu0.commit.committed_per_cycle::7      4189899      0.18%     98.51% # Number of insts commited each cycle
system.cpu0.commit.committed_per_cycle::8     35176746      1.49%    100.00% # Number of insts commited each cycle
system.cpu0.commit.committed_per_cycle::overflows            0      0.00%    100.00% # Number of insts commited each cycle
system.cpu0.commit.committed_per_cycle::min_value            0                       # Number of insts commited each cycle
system.cpu0.commit.committed_per_cycle::max_value            8                       # Number of insts commited each cycle
system.cpu0.commit.committed_per_cycle::total   2365762893                       # Number of insts commited each cycle
system.cpu0.commit.fp_insts                        46                       # Number of committed floating point instructions.
system.cpu0.commit.function_calls            25143533                       # Number of function calls committed.
system.cpu0.commit.int_insts               1273925166                       # Number of committed integer instructions.
system.cpu0.commit.loads                    405171689                       # Number of loads committed
system.cpu0.commit.membars                    4203741                       # Number of memory barriers committed
system.cpu0.commit.op_class_0::No_OpClass      4203747      0.32%      0.32% # Class of committed instruction
system.cpu0.commit.op_class_0::IntAlu       742065131     56.27%     56.59% # Class of committed instruction
system.cpu0.commit.op_class_0::IntMult       11831786      0.90%     57.49% # Class of committed instruction
system.cpu0.commit.op_class_0::IntDiv         2099835      0.16%     57.65% # Class of committed instruction
system.cpu0.commit.op_class_0::FloatAdd             0      0.00%     57.65% # Class of committed instruction
system.cpu0.commit.op_class_0::FloatCmp             4      0.00%     57.65% # Class of committed instruction
system.cpu0.commit.op_class_0::FloatCvt            12      0.00%     57.65% # Class of committed instruction
system.cpu0.commit.op_class_0::FloatMult            0      0.00%     57.65% # Class of committed instruction
system.cpu0.commit.op_class_0::FloatMultAcc            0      0.00%     57.65% # Class of committed instruction
system.cpu0.commit.op_class_0::FloatDiv             2      0.00%     57.65% # Class of committed instruction
system.cpu0.commit.op_class_0::FloatMisc            4      0.00%     57.65% # Class of committed instruction
system.cpu0.commit.op_class_0::FloatSqrt            0      0.00%     57.65% # Class of committed instruction
system.cpu0.commit.op_class_0::SimdAdd              0      0.00%     57.65% # Class of committed instruction
system.cpu0.commit.op_class_0::SimdAddAcc            0      0.00%     57.65% # Class of committed instruction
system.cpu0.commit.op_class_0::SimdAlu              0      0.00%     57.65% # Class of committed instruction
system.cpu0.commit.op_class_0::SimdCmp              0      0.00%     57.65% # Class of committed instruction
system.cpu0.commit.op_class_0::SimdCvt              0      0.00%     57.65% # Class of committed instruction
system.cpu0.commit.op_class_0::SimdMisc             0      0.00%     57.65% # Class of committed instruction
system.cpu0.commit.op_class_0::SimdMult             0      0.00%     57.65% # Class of committed instruction
system.cpu0.commit.op_class_0::SimdMultAcc            0      0.00%     57.65% # Class of committed instruction
system.cpu0.commit.op_class_0::SimdShift            0      0.00%     57.65% # Class of committed instruction
system.cpu0.commit.op_class_0::SimdShiftAcc            0      0.00%     57.65% # Class of committed instruction
system.cpu0.commit.op_class_0::SimdDiv              0      0.00%     57.65% # Class of committed instruction
system.cpu0.commit.op_class_0::SimdSqrt             0      0.00%     57.65% # Class of committed instruction
system.cpu0.commit.op_class_0::SimdFloatAdd            0      0.00%     57.65% # Class of committed instruction
system.cpu0.commit.op_class_0::SimdFloatAlu            0      0.00%     57.65% # Class of committed instruction
system.cpu0.commit.op_class_0::SimdFloatCmp            0      0.00%     57.65% # Class of committed instruction
system.cpu0.commit.op_class_0::SimdFloatCvt            0      0.00%     57.65% # Class of committed instruction
system.cpu0.commit.op_class_0::SimdFloatDiv            0      0.00%     57.65% # Class of committed instruction
system.cpu0.commit.op_class_0::SimdFloatMisc            0      0.00%     57.65% # Class of committed instruction
system.cpu0.commit.op_class_0::SimdFloatMult            0      0.00%     57.65% # Class of committed instruction
system.cpu0.commit.op_class_0::SimdFloatMultAcc            0      0.00%     57.65% # Class of committed instruction
system.cpu0.commit.op_class_0::SimdFloatSqrt            0      0.00%     57.65% # Class of committed instruction
system.cpu0.commit.op_class_0::SimdReduceAdd            0      0.00%     57.65% # Class of committed instruction
system.cpu0.commit.op_class_0::SimdReduceAlu            0      0.00%     57.65% # Class of committed instruction
system.cpu0.commit.op_class_0::SimdReduceCmp            0      0.00%     57.65% # Class of committed instruction
system.cpu0.commit.op_class_0::SimdFloatReduceAdd            0      0.00%     57.65% # Class of committed instruction
system.cpu0.commit.op_class_0::SimdFloatReduceCmp            0      0.00%     57.65% # Class of committed instruction
system.cpu0.commit.op_class_0::SimdAes              0      0.00%     57.65% # Class of committed instruction
system.cpu0.commit.op_class_0::SimdAesMix            0      0.00%     57.65% # Class of committed instruction
system.cpu0.commit.op_class_0::SimdSha1Hash            0      0.00%     57.65% # Class of committed instruction
system.cpu0.commit.op_class_0::SimdSha1Hash2            0      0.00%     57.65% # Class of committed instruction
system.cpu0.commit.op_class_0::SimdSha256Hash            0      0.00%     57.65% # Class of committed instruction
system.cpu0.commit.op_class_0::SimdSha256Hash2            0      0.00%     57.65% # Class of committed instruction
system.cpu0.commit.op_class_0::SimdShaSigma2            0      0.00%     57.65% # Class of committed instruction
system.cpu0.commit.op_class_0::SimdShaSigma3            0      0.00%     57.65% # Class of committed instruction
system.cpu0.commit.op_class_0::SimdPredAlu            0      0.00%     57.65% # Class of committed instruction
system.cpu0.commit.op_class_0::MemRead      407271975     30.89%     88.53% # Class of committed instruction
system.cpu0.commit.op_class_0::MemWrite     151184579     11.47%    100.00% # Class of committed instruction
system.cpu0.commit.op_class_0::FloatMemRead            8      0.00%    100.00% # Class of committed instruction
system.cpu0.commit.op_class_0::FloatMemWrite           16      0.00%    100.00% # Class of committed instruction
system.cpu0.commit.op_class_0::IprAccess            0      0.00%    100.00% # Class of committed instruction
system.cpu0.commit.op_class_0::InstPrefetch            0      0.00%    100.00% # Class of committed instruction
system.cpu0.commit.op_class_0::total       1318657099                       # Class of committed instruction
system.cpu0.commit.refs                     558456578                       # Number of memory references committed
system.cpu0.commit.swp_count                        0                       # Number of s/w prefetches committed
system.cpu0.commit.vec_insts                        0                       # Number of committed Vector instructions.
system.cpu0.committedInsts                 1316553516                       # Number of Instructions Simulated
system.cpu0.committedOps                   1318657099                       # Number of Ops (including micro ops) Simulated
system.cpu0.cpi                              1.930990                       # CPI: Cycles Per Instruction
system.cpu0.cpi_total                        1.930990                       # CPI: Total CPI of All Threads
system.cpu0.decode.BlockedCycles            443634491                       # Number of cycles decode is blocked
system.cpu0.decode.BranchMispred              4724103                       # Number of times decode detected a branch misprediction
system.cpu0.decode.BranchResolved           176568165                       # Number of times decode resolved a branch
system.cpu0.decode.DecodedInsts            1406055401                       # Number of instructions handled by decode
system.cpu0.decode.IdleCycles               945084692                       # Number of cycles decode is idle
system.cpu0.decode.RunCycles                975987040                       # Number of cycles decode is running
system.cpu0.decode.SquashCycles               8791848                       # Number of cycles decode is squashing
system.cpu0.decode.SquashedInsts              8183849                       # Number of squashed instructions handled by decode
system.cpu0.decode.UnblockCycles              6071527                       # Number of cycles decode is unblocking
system.cpu0.dtb.accesses                            0                       # DTB accesses
system.cpu0.dtb.hits                                0                       # DTB hits
system.cpu0.dtb.misses                              0                       # DTB misses
system.cpu0.dtb.read_accesses                       0                       # DTB read accesses
system.cpu0.dtb.read_hits                           0                       # DTB read hits
system.cpu0.dtb.read_misses                         0                       # DTB read misses
system.cpu0.dtb.write_accesses                      0                       # DTB write accesses
system.cpu0.dtb.write_hits                          0                       # DTB write hits
system.cpu0.dtb.write_misses                        0                       # DTB write misses
system.cpu0.fetch.Branches                  345819593                       # Number of branches that fetch encountered
system.cpu0.fetch.CacheLines                248765642                       # Number of cache lines fetched
system.cpu0.fetch.Cycles                   1429318549                       # Number of cycles fetch has run and was not squashing or blocked
system.cpu0.fetch.IcacheSquashes              5012156                       # Number of outstanding Icache misses that were squashed
system.cpu0.fetch.IcacheWaitRetryStallCycles          246                       # Number of stall cycles due to full MSHR
system.cpu0.fetch.Insts                    1423397872                       # Number of instructions fetch has processed
system.cpu0.fetch.MiscStallCycles                  36                       # Number of cycles fetch has spent waiting on interrupts, or bad addresses, or out of MSHRs
system.cpu0.fetch.PendingTrapStallCycles           87                       # Number of stall cycles due to pending traps
system.cpu0.fetch.SquashCycles               26926686                       # Number of cycles fetch has spent squashing
system.cpu0.fetch.branchRate                 0.136029                       # Number of branch fetches per cycle
system.cpu0.fetch.icacheStallCycles         936787337                       # Number of cycles fetch is stalled on an Icache miss
system.cpu0.fetch.predictedBranches         199109980                       # Number of branches that fetch has predicted taken
system.cpu0.fetch.rate                       0.559896                       # Number of inst fetches per cycle
system.cpu0.fetch.rateDist::samples        2379569598                       # Number of instructions fetched each cycle (Total)
system.cpu0.fetch.rateDist::mean             0.599059                       # Number of instructions fetched each cycle (Total)
system.cpu0.fetch.rateDist::stdev            0.875497                       # Number of instructions fetched each cycle (Total)
system.cpu0.fetch.rateDist::underflows              0      0.00%      0.00% # Number of instructions fetched each cycle (Total)
system.cpu0.fetch.rateDist::0              1361242872     57.21%     57.21% # Number of instructions fetched each cycle (Total)
system.cpu0.fetch.rateDist::1               754676421     31.71%     88.92% # Number of instructions fetched each cycle (Total)
system.cpu0.fetch.rateDist::2               156800952      6.59%     95.51% # Number of instructions fetched each cycle (Total)
system.cpu0.fetch.rateDist::3                89949309      3.78%     99.29% # Number of instructions fetched each cycle (Total)
system.cpu0.fetch.rateDist::4                 7749345      0.33%     99.62% # Number of instructions fetched each cycle (Total)
system.cpu0.fetch.rateDist::5                 4836584      0.20%     99.82% # Number of instructions fetched each cycle (Total)
system.cpu0.fetch.rateDist::6                  107760      0.00%     99.82% # Number of instructions fetched each cycle (Total)
system.cpu0.fetch.rateDist::7                 2101696      0.09%     99.91% # Number of instructions fetched each cycle (Total)
system.cpu0.fetch.rateDist::8                 2104659      0.09%    100.00% # Number of instructions fetched each cycle (Total)
system.cpu0.fetch.rateDist::overflows               0      0.00%    100.00% # Number of instructions fetched each cycle (Total)
system.cpu0.fetch.rateDist::min_value               0                       # Number of instructions fetched each cycle (Total)
system.cpu0.fetch.rateDist::max_value               8                       # Number of instructions fetched each cycle (Total)
system.cpu0.fetch.rateDist::total          2379569598                       # Number of instructions fetched each cycle (Total)
system.cpu0.fp_regfile_reads                       40                       # number of floating regfile reads
system.cpu0.fp_regfile_writes                      22                       # number of floating regfile writes
system.cpu0.idleCycles                      162682646                       # Total number of cycles that the CPU has spent unscheduled due to idling
system.cpu0.iew.branchMispredicts             8905155                       # Number of branch mispredicts detected at execute
system.cpu0.iew.exec_branches               336249337                       # Number of branches executed
system.cpu0.iew.exec_nop                            0                       # number of nop insts executed
system.cpu0.iew.exec_rate                    0.538855                       # Inst execution rate
system.cpu0.iew.exec_refs                   586578981                       # number of memory reference insts executed
system.cpu0.iew.exec_stores                 155845267                       # Number of stores executed
system.cpu0.iew.exec_swp                            0                       # number of swp insts executed
system.cpu0.iew.iewBlockCycles              363635605                       # Number of cycles IEW is blocking
system.cpu0.iew.iewDispLoadInsts            431068251                       # Number of dispatched load instructions
system.cpu0.iew.iewDispNonSpecInsts           2106254                       # Number of dispatched non-speculative instructions
system.cpu0.iew.iewDispSquashedInsts          3232838                       # Number of squashed instructions skipped by dispatch
system.cpu0.iew.iewDispStoreInsts           158001022                       # Number of dispatched store instructions
system.cpu0.iew.iewDispatchedInsts         1384165542                       # Number of instructions dispatched to IQ
system.cpu0.iew.iewExecLoadInsts            430733714                       # Number of load instructions executed
system.cpu0.iew.iewExecSquashedInsts          9058252                       # Number of squashed instructions skipped in execute
system.cpu0.iew.iewExecutedInsts           1369906155                       # Number of executed instructions
system.cpu0.iew.iewIQFullEvents               1797145                       # Number of times the IQ has become full, causing a stall
system.cpu0.iew.iewIdleCycles                       0                       # Number of cycles IEW is idle
system.cpu0.iew.iewLSQFullEvents              8277458                       # Number of times the LSQ has become full, causing a stall
system.cpu0.iew.iewSquashCycles               8791848                       # Number of cycles IEW is squashing
system.cpu0.iew.iewUnblockCycles             12389342                       # Number of cycles IEW is unblocking
system.cpu0.iew.lsq.thread0.blockedLoads            0                       # Number of blocked loads due to partial load-store forwarding
system.cpu0.iew.lsq.thread0.cacheBlocked       185850                       # Number of times an access to memory failed due to the cache being blocked
system.cpu0.iew.lsq.thread0.forwLoads        20081999                       # Number of loads that had data forwarded from stores
system.cpu0.iew.lsq.thread0.ignoredResponses        38235                       # Number of memory responses ignored because the instruction is squashed
system.cpu0.iew.lsq.thread0.invAddrLoads            0                       # Number of loads ignored due to an invalid address
system.cpu0.iew.lsq.thread0.invAddrSwpfs            0                       # Number of software prefetches ignored due to an invalid address
system.cpu0.iew.lsq.thread0.memOrderViolation        11709                       # Number of memory ordering violations
system.cpu0.iew.lsq.thread0.rescheduledLoads      4784268                       # Number of loads that were rescheduled
system.cpu0.iew.lsq.thread0.squashedLoads     25896562                       # Number of loads squashed
system.cpu0.iew.lsq.thread0.squashedStores      4716133                       # Number of stores squashed
system.cpu0.iew.memOrderViolationEvents         11709                       # Number of memory order violations
system.cpu0.iew.predictedNotTakenIncorrect       738415                       # Number of branches that were predicted not taken incorrectly
system.cpu0.iew.predictedTakenIncorrect       8166740                       # Number of branches that were predicted taken incorrectly
system.cpu0.iew.wb_consumers                577351952                       # num instructions consuming a value
system.cpu0.iew.wb_count                   1358668535                       # cumulative count of insts written-back
system.cpu0.iew.wb_fanout                    0.899542                       # average fanout of values written-back
system.cpu0.iew.wb_producers                519352200                       # num instructions producing a value
system.cpu0.iew.wb_rate                      0.534435                       # insts written-back per cycle
system.cpu0.iew.wb_sent                    1358751611                       # cumulative count of insts sent to commit
system.cpu0.int_regfile_reads              1680831512                       # number of integer regfile reads
system.cpu0.int_regfile_writes              876304104                       # number of integer regfile writes
system.cpu0.ipc                              0.517869                       # IPC: Instructions Per Cycle
system.cpu0.ipc_total                        0.517869                       # IPC: Total IPC of All Threads
system.cpu0.iq.FU_type_0::No_OpClass          4205629      0.30%      0.30% # Type of FU issued
system.cpu0.iq.FU_type_0::IntAlu            770020950     55.84%     56.15% # Type of FU issued
system.cpu0.iq.FU_type_0::IntMult            11832905      0.86%     57.00% # Type of FU issued
system.cpu0.iq.FU_type_0::IntDiv              2100429      0.15%     57.16% # Type of FU issued
system.cpu0.iq.FU_type_0::FloatAdd                  0      0.00%     57.16% # Type of FU issued
system.cpu0.iq.FU_type_0::FloatCmp                  4      0.00%     57.16% # Type of FU issued
system.cpu0.iq.FU_type_0::FloatCvt                 12      0.00%     57.16% # Type of FU issued
system.cpu0.iq.FU_type_0::FloatMult                 0      0.00%     57.16% # Type of FU issued
system.cpu0.iq.FU_type_0::FloatMultAcc              0      0.00%     57.16% # Type of FU issued
system.cpu0.iq.FU_type_0::FloatDiv                  2      0.00%     57.16% # Type of FU issued
system.cpu0.iq.FU_type_0::FloatMisc                 4      0.00%     57.16% # Type of FU issued
system.cpu0.iq.FU_type_0::FloatSqrt                 0      0.00%     57.16% # Type of FU issued
system.cpu0.iq.FU_type_0::SimdAdd                   0      0.00%     57.16% # Type of FU issued
system.cpu0.iq.FU_type_0::SimdAddAcc                0      0.00%     57.16% # Type of FU issued
system.cpu0.iq.FU_type_0::SimdAlu                   0      0.00%     57.16% # Type of FU issued
system.cpu0.iq.FU_type_0::SimdCmp                   0      0.00%     57.16% # Type of FU issued
system.cpu0.iq.FU_type_0::SimdCvt                   0      0.00%     57.16% # Type of FU issued
system.cpu0.iq.FU_type_0::SimdMisc                  0      0.00%     57.16% # Type of FU issued
system.cpu0.iq.FU_type_0::SimdMult                  0      0.00%     57.16% # Type of FU issued
system.cpu0.iq.FU_type_0::SimdMultAcc               0      0.00%     57.16% # Type of FU issued
system.cpu0.iq.FU_type_0::SimdShift                 0      0.00%     57.16% # Type of FU issued
system.cpu0.iq.FU_type_0::SimdShiftAcc              0      0.00%     57.16% # Type of FU issued
system.cpu0.iq.FU_type_0::SimdDiv                   0      0.00%     57.16% # Type of FU issued
system.cpu0.iq.FU_type_0::SimdSqrt                  0      0.00%     57.16% # Type of FU issued
system.cpu0.iq.FU_type_0::SimdFloatAdd              0      0.00%     57.16% # Type of FU issued
system.cpu0.iq.FU_type_0::SimdFloatAlu              0      0.00%     57.16% # Type of FU issued
system.cpu0.iq.FU_type_0::SimdFloatCmp              0      0.00%     57.16% # Type of FU issued
system.cpu0.iq.FU_type_0::SimdFloatCvt              0      0.00%     57.16% # Type of FU issued
system.cpu0.iq.FU_type_0::SimdFloatDiv              0      0.00%     57.16% # Type of FU issued
system.cpu0.iq.FU_type_0::SimdFloatMisc             0      0.00%     57.16% # Type of FU issued
system.cpu0.iq.FU_type_0::SimdFloatMult             0      0.00%     57.16% # Type of FU issued
system.cpu0.iq.FU_type_0::SimdFloatMultAcc            0      0.00%     57.16% # Type of FU issued
system.cpu0.iq.FU_type_0::SimdFloatSqrt             0      0.00%     57.16% # Type of FU issued
system.cpu0.iq.FU_type_0::SimdReduceAdd             0      0.00%     57.16% # Type of FU issued
system.cpu0.iq.FU_type_0::SimdReduceAlu             0      0.00%     57.16% # Type of FU issued
system.cpu0.iq.FU_type_0::SimdReduceCmp             0      0.00%     57.16% # Type of FU issued
system.cpu0.iq.FU_type_0::SimdFloatReduceAdd            0      0.00%     57.16% # Type of FU issued
system.cpu0.iq.FU_type_0::SimdFloatReduceCmp            0      0.00%     57.16% # Type of FU issued
system.cpu0.iq.FU_type_0::SimdAes                   0      0.00%     57.16% # Type of FU issued
system.cpu0.iq.FU_type_0::SimdAesMix                0      0.00%     57.16% # Type of FU issued
system.cpu0.iq.FU_type_0::SimdSha1Hash              0      0.00%     57.16% # Type of FU issued
system.cpu0.iq.FU_type_0::SimdSha1Hash2             0      0.00%     57.16% # Type of FU issued
system.cpu0.iq.FU_type_0::SimdSha256Hash            0      0.00%     57.16% # Type of FU issued
system.cpu0.iq.FU_type_0::SimdSha256Hash2            0      0.00%     57.16% # Type of FU issued
system.cpu0.iq.FU_type_0::SimdShaSigma2             0      0.00%     57.16% # Type of FU issued
system.cpu0.iq.FU_type_0::SimdShaSigma3             0      0.00%     57.16% # Type of FU issued
system.cpu0.iq.FU_type_0::SimdPredAlu               0      0.00%     57.16% # Type of FU issued
system.cpu0.iq.FU_type_0::MemRead           435365148     31.57%     88.73% # Type of FU issued
system.cpu0.iq.FU_type_0::MemWrite          155439301     11.27%    100.00% # Type of FU issued
system.cpu0.iq.FU_type_0::FloatMemRead              8      0.00%    100.00% # Type of FU issued
system.cpu0.iq.FU_type_0::FloatMemWrite            16      0.00%    100.00% # Type of FU issued
system.cpu0.iq.FU_type_0::IprAccess                 0      0.00%    100.00% # Type of FU issued
system.cpu0.iq.FU_type_0::InstPrefetch              0      0.00%    100.00% # Type of FU issued
system.cpu0.iq.FU_type_0::total            1378964408                       # Type of FU issued
system.cpu0.iq.fp_alu_accesses                     48                       # Number of floating point alu accesses
system.cpu0.iq.fp_inst_queue_reads                 94                       # Number of floating instruction queue reads
system.cpu0.iq.fp_inst_queue_wakeup_accesses           46                       # Number of floating instruction queue wakeup accesses
system.cpu0.iq.fp_inst_queue_writes                50                       # Number of floating instruction queue writes
system.cpu0.iq.fu_busy_cnt                    2816389                       # FU busy when requested
system.cpu0.iq.fu_busy_rate                  0.002042                       # FU busy rate (busy events/executed inst)
system.cpu0.iq.fu_full::No_OpClass                  0      0.00%      0.00% # attempts to use FU when none available
system.cpu0.iq.fu_full::IntAlu                 519078     18.43%     18.43% # attempts to use FU when none available
system.cpu0.iq.fu_full::IntMult                     0      0.00%     18.43% # attempts to use FU when none available
system.cpu0.iq.fu_full::IntDiv                      0      0.00%     18.43% # attempts to use FU when none available
system.cpu0.iq.fu_full::FloatAdd                    0      0.00%     18.43% # attempts to use FU when none available
system.cpu0.iq.fu_full::FloatCmp                    0      0.00%     18.43% # attempts to use FU when none available
system.cpu0.iq.fu_full::FloatCvt                    0      0.00%     18.43% # attempts to use FU when none available
system.cpu0.iq.fu_full::FloatMult                   0      0.00%     18.43% # attempts to use FU when none available
system.cpu0.iq.fu_full::FloatMultAcc                0      0.00%     18.43% # attempts to use FU when none available
system.cpu0.iq.fu_full::FloatDiv                    0      0.00%     18.43% # attempts to use FU when none available
system.cpu0.iq.fu_full::FloatMisc                   0      0.00%     18.43% # attempts to use FU when none available
system.cpu0.iq.fu_full::FloatSqrt                   0      0.00%     18.43% # attempts to use FU when none available
system.cpu0.iq.fu_full::SimdAdd                     0      0.00%     18.43% # attempts to use FU when none available
system.cpu0.iq.fu_full::SimdAddAcc                  0      0.00%     18.43% # attempts to use FU when none available
system.cpu0.iq.fu_full::SimdAlu                     0      0.00%     18.43% # attempts to use FU when none available
system.cpu0.iq.fu_full::SimdCmp                     0      0.00%     18.43% # attempts to use FU when none available
system.cpu0.iq.fu_full::SimdCvt                     0      0.00%     18.43% # attempts to use FU when none available
system.cpu0.iq.fu_full::SimdMisc                    0      0.00%     18.43% # attempts to use FU when none available
system.cpu0.iq.fu_full::SimdMult                    0      0.00%     18.43% # attempts to use FU when none available
system.cpu0.iq.fu_full::SimdMultAcc                 0      0.00%     18.43% # attempts to use FU when none available
system.cpu0.iq.fu_full::SimdShift                   0      0.00%     18.43% # attempts to use FU when none available
system.cpu0.iq.fu_full::SimdShiftAcc                0      0.00%     18.43% # attempts to use FU when none available
system.cpu0.iq.fu_full::SimdDiv                     0      0.00%     18.43% # attempts to use FU when none available
system.cpu0.iq.fu_full::SimdSqrt                    0      0.00%     18.43% # attempts to use FU when none available
system.cpu0.iq.fu_full::SimdFloatAdd                0      0.00%     18.43% # attempts to use FU when none available
system.cpu0.iq.fu_full::SimdFloatAlu                0      0.00%     18.43% # attempts to use FU when none available
system.cpu0.iq.fu_full::SimdFloatCmp                0      0.00%     18.43% # attempts to use FU when none available
system.cpu0.iq.fu_full::SimdFloatCvt                0      0.00%     18.43% # attempts to use FU when none available
system.cpu0.iq.fu_full::SimdFloatDiv                0      0.00%     18.43% # attempts to use FU when none available
system.cpu0.iq.fu_full::SimdFloatMisc               0      0.00%     18.43% # attempts to use FU when none available
system.cpu0.iq.fu_full::SimdFloatMult               0      0.00%     18.43% # attempts to use FU when none available
system.cpu0.iq.fu_full::SimdFloatMultAcc            0      0.00%     18.43% # attempts to use FU when none available
system.cpu0.iq.fu_full::SimdFloatSqrt               0      0.00%     18.43% # attempts to use FU when none available
system.cpu0.iq.fu_full::SimdReduceAdd               0      0.00%     18.43% # attempts to use FU when none available
system.cpu0.iq.fu_full::SimdReduceAlu               0      0.00%     18.43% # attempts to use FU when none available
system.cpu0.iq.fu_full::SimdReduceCmp               0      0.00%     18.43% # attempts to use FU when none available
system.cpu0.iq.fu_full::SimdFloatReduceAdd            0      0.00%     18.43% # attempts to use FU when none available
system.cpu0.iq.fu_full::SimdFloatReduceCmp            0      0.00%     18.43% # attempts to use FU when none available
system.cpu0.iq.fu_full::SimdAes                     0      0.00%     18.43% # attempts to use FU when none available
system.cpu0.iq.fu_full::SimdAesMix                  0      0.00%     18.43% # attempts to use FU when none available
system.cpu0.iq.fu_full::SimdSha1Hash                0      0.00%     18.43% # attempts to use FU when none available
system.cpu0.iq.fu_full::SimdSha1Hash2               0      0.00%     18.43% # attempts to use FU when none available
system.cpu0.iq.fu_full::SimdSha256Hash              0      0.00%     18.43% # attempts to use FU when none available
system.cpu0.iq.fu_full::SimdSha256Hash2             0      0.00%     18.43% # attempts to use FU when none available
system.cpu0.iq.fu_full::SimdShaSigma2               0      0.00%     18.43% # attempts to use FU when none available
system.cpu0.iq.fu_full::SimdShaSigma3               0      0.00%     18.43% # attempts to use FU when none available
system.cpu0.iq.fu_full::SimdPredAlu                 0      0.00%     18.43% # attempts to use FU when none available
system.cpu0.iq.fu_full::MemRead               1891128     67.15%     85.58% # attempts to use FU when none available
system.cpu0.iq.fu_full::MemWrite               406181     14.42%    100.00% # attempts to use FU when none available
system.cpu0.iq.fu_full::FloatMemRead                0      0.00%    100.00% # attempts to use FU when none available
system.cpu0.iq.fu_full::FloatMemWrite               2      0.00%    100.00% # attempts to use FU when none available
system.cpu0.iq.fu_full::IprAccess                   0      0.00%    100.00% # attempts to use FU when none available
system.cpu0.iq.fu_full::InstPrefetch                0      0.00%    100.00% # attempts to use FU when none available
system.cpu0.iq.int_alu_accesses            1377575120                       # Number of integer alu accesses
system.cpu0.iq.int_inst_queue_reads        5140530057                       # Number of integer instruction queue reads
system.cpu0.iq.int_inst_queue_wakeup_accesses   1358668489                       # Number of integer instruction queue wakeup accesses
system.cpu0.iq.int_inst_queue_writes       1449685184                       # Number of integer instruction queue writes
system.cpu0.iq.iqInstsAdded                1377855364                       # Number of instructions added to the IQ (excludes non-spec)
system.cpu0.iq.iqInstsIssued               1378964408                       # Number of instructions issued
system.cpu0.iq.iqNonSpecInstsAdded            6310178                       # Number of non-speculative instructions added to the IQ
system.cpu0.iq.iqSquashedInstsExamined       65508439                       # Number of squashed instructions iterated over during squash; mainly for profiling
system.cpu0.iq.iqSquashedInstsIssued           215349                       # Number of squashed instructions issued
system.cpu0.iq.iqSquashedNonSpecRemoved           394                       # Number of squashed non-spec instructions that were removed
system.cpu0.iq.iqSquashedOperandsExamined     26400210                       # Number of squashed operands that are examined and possibly removed from graph
system.cpu0.iq.issued_per_cycle::samples   2379569598                       # Number of insts issued each cycle
system.cpu0.iq.issued_per_cycle::mean        0.579502                       # Number of insts issued each cycle
system.cpu0.iq.issued_per_cycle::stdev       0.803392                       # Number of insts issued each cycle
system.cpu0.iq.issued_per_cycle::underflows            0      0.00%      0.00% # Number of insts issued each cycle
system.cpu0.iq.issued_per_cycle::0         1373934640     57.74%     57.74% # Number of insts issued each cycle
system.cpu0.iq.issued_per_cycle::1          704299365     29.60%     87.34% # Number of insts issued each cycle
system.cpu0.iq.issued_per_cycle::2          249741590     10.50%     97.83% # Number of insts issued each cycle
system.cpu0.iq.issued_per_cycle::3           39332618      1.65%     99.48% # Number of insts issued each cycle
system.cpu0.iq.issued_per_cycle::4            7143099      0.30%     99.78% # Number of insts issued each cycle
system.cpu0.iq.issued_per_cycle::5            3020873      0.13%     99.91% # Number of insts issued each cycle
system.cpu0.iq.issued_per_cycle::6            1377946      0.06%     99.97% # Number of insts issued each cycle
system.cpu0.iq.issued_per_cycle::7             516164      0.02%     99.99% # Number of insts issued each cycle
system.cpu0.iq.issued_per_cycle::8             203303      0.01%    100.00% # Number of insts issued each cycle
system.cpu0.iq.issued_per_cycle::overflows            0      0.00%    100.00% # Number of insts issued each cycle
system.cpu0.iq.issued_per_cycle::min_value            0                       # Number of insts issued each cycle
system.cpu0.iq.issued_per_cycle::max_value            8                       # Number of insts issued each cycle
system.cpu0.iq.issued_per_cycle::total     2379569598                       # Number of insts issued each cycle
system.cpu0.iq.rate                          0.542418                       # Inst issue rate
system.cpu0.iq.vec_alu_accesses                     0                       # Number of vector alu accesses
system.cpu0.iq.vec_inst_queue_reads                 0                       # Number of vector instruction queue reads
system.cpu0.iq.vec_inst_queue_wakeup_accesses            0                       # Number of vector instruction queue wakeup accesses
system.cpu0.iq.vec_inst_queue_writes                0                       # Number of vector instruction queue writes
system.cpu0.itb.accesses                            0                       # DTB accesses
system.cpu0.itb.hits                                0                       # DTB hits
system.cpu0.itb.misses                              0                       # DTB misses
system.cpu0.itb.read_accesses                       0                       # DTB read accesses
system.cpu0.itb.read_hits                           0                       # DTB read hits
system.cpu0.itb.read_misses                         0                       # DTB read misses
system.cpu0.itb.write_accesses                      0                       # DTB write accesses
system.cpu0.itb.write_hits                          0                       # DTB write hits
system.cpu0.itb.write_misses                        0                       # DTB write misses
system.cpu0.memDep0.conflictingLoads         18117764                       # Number of conflicting loads.
system.cpu0.memDep0.conflictingStores         1826965                       # Number of conflicting stores.
system.cpu0.memDep0.insertedLoads           431068251                       # Number of loads inserted to the mem dependence unit.
system.cpu0.memDep0.insertedStores          158001022                       # Number of stores inserted to the mem dependence unit.
system.cpu0.misc_regfile_reads                   1898                       # number of misc regfile reads
system.cpu0.misc_regfile_writes                    22                       # number of misc regfile writes
system.cpu0.numCycles                      2542252244                       # number of cpu cycles simulated
system.cpu0.numWorkItemsCompleted                   0                       # number of work items this cpu completed
system.cpu0.numWorkItemsStarted                     0                       # number of work items this cpu started
system.cpu0.quiesceCycles                     7102488                       # Total number of cycles that CPU has spent quiesced or waiting for an interrupt
system.cpu0.rename.BlockCycles              392317139                       # Number of cycles rename is blocking
system.cpu0.rename.CommittedMaps            845199395                       # Number of HB maps that are committed
system.cpu0.rename.IQFullEvents              14931456                       # Number of times rename has blocked due to IQ full
system.cpu0.rename.IdleCycles               957065650                       # Number of cycles rename is idle
system.cpu0.rename.LQFullEvents              12346649                       # Number of times rename has blocked due to LQ full
system.cpu0.rename.ROBFullEvents                26011                       # Number of times rename has blocked due to ROB full
system.cpu0.rename.RenameLookups           1714772976                       # Number of register rename lookups that rename has made
system.cpu0.rename.RenamedInsts            1396343573                       # Number of instructions processed by rename
system.cpu0.rename.RenamedOperands          905887735                       # Number of destination operands rename has renamed
system.cpu0.rename.RunCycles                968764809                       # Number of cycles rename is running
system.cpu0.rename.SQFullEvents              24729570                       # Number of times rename has blocked due to SQ full
system.cpu0.rename.SquashCycles               8791848                       # Number of cycles rename is squashing
system.cpu0.rename.UnblockCycles             52467771                       # Number of cycles rename is unblocking
system.cpu0.rename.UndoneMaps                60688332                       # Number of HB maps that are undone due to squashing
system.cpu0.rename.fp_rename_lookups               40                       # Number of floating rename lookups
system.cpu0.rename.int_rename_lookups      1714772936                       # Number of integer rename lookups
system.cpu0.rename.serializeStallCycles        162381                       # count of cycles rename stalled for serializing inst
system.cpu0.rename.serializingInsts              5911                       # count of serializing insts renamed
system.cpu0.rename.skidInsts                 31215452                       # count of insts added to the skid buffer
system.cpu0.rename.tempSerializingInsts          5905                       # count of temporary serializing insts renamed
system.cpu0.rob.rob_reads                  3714798838                       # The number of ROB reads
system.cpu0.rob.rob_writes                 2782308571                       # The number of ROB writes
system.cpu0.timesIdled                       29865969                       # Number of times that the entire CPU went into an idle state and unscheduled itself
system.cpu0.workload.numSyscalls                 1865                       # Number of system calls
system.cpu1.branchPred.BTBCorrect                   0                       # Number of correct BTB predictions (this stat may not work properly.
system.cpu1.branchPred.BTBHitPct            82.991358                       # BTB Hit Percentage
system.cpu1.branchPred.BTBHits               20714169                       # Number of BTB hits
system.cpu1.branchPred.BTBLookups            24959429                       # Number of BTB lookups
system.cpu1.branchPred.RASInCorrect                 0                       # Number of incorrect RAS predictions.
system.cpu1.branchPred.condIncorrect          2786882                       # Number of conditional branches incorrect
system.cpu1.branchPred.condPredicted         30661202                       # Number of conditional branches predicted
system.cpu1.branchPred.indirectHits           1072194                       # Number of indirect target hits.
system.cpu1.branchPred.indirectLookups        1094180                       # Number of indirect predictor lookups.
system.cpu1.branchPred.indirectMisses           21986                       # Number of indirect misses.
system.cpu1.branchPred.lookups               35273200                       # Number of BP lookups
system.cpu1.branchPred.usedRAS                      0                       # Number of times the RAS was used to get a target.
system.cpu1.branchPredindirectMispredicted        48288                       # Number of mispredicted indirect branches.
system.cpu1.commit.amos                       2099996                       # Number of atomic instructions committed
system.cpu1.commit.branchMispredicts          1983454                       # The number of times a branch was mispredicted
system.cpu1.commit.branches                  28119081                       # Number of branches committed
system.cpu1.commit.bw_lim_events              3991508                       # number cycles where commit BW limit reached
system.cpu1.commit.commitNonSpecStalls        6300671                       # The number of times commit has been forced to stall to communicate backwards
system.cpu1.commit.commitSquashedInsts       16753995                       # The number of squashed insts skipped by commit
system.cpu1.commit.committedInsts           120064860                       # Number of instructions committed
system.cpu1.commit.committedOps             122165036                       # Number of ops (including micro ops) committed
system.cpu1.commit.committed_per_cycle::samples    467596213                       # Number of insts commited each cycle
system.cpu1.commit.committed_per_cycle::mean     0.261262                       # Number of insts commited each cycle
system.cpu1.commit.committed_per_cycle::stdev     1.024167                       # Number of insts commited each cycle
system.cpu1.commit.committed_per_cycle::underflows            0      0.00%      0.00% # Number of insts commited each cycle
system.cpu1.commit.committed_per_cycle::0    417908014     89.37%     89.37% # Number of insts commited each cycle
system.cpu1.commit.committed_per_cycle::1     24617305      5.26%     94.64% # Number of insts commited each cycle
system.cpu1.commit.committed_per_cycle::2      8847404      1.89%     96.53% # Number of insts commited each cycle
system.cpu1.commit.committed_per_cycle::3      7030044      1.50%     98.03% # Number of insts commited each cycle
system.cpu1.commit.committed_per_cycle::4      1964883      0.42%     98.45% # Number of insts commited each cycle
system.cpu1.commit.committed_per_cycle::5       772859      0.17%     98.62% # Number of insts commited each cycle
system.cpu1.commit.committed_per_cycle::6      2142472      0.46%     99.08% # Number of insts commited each cycle
system.cpu1.commit.committed_per_cycle::7       321724      0.07%     99.15% # Number of insts commited each cycle
system.cpu1.commit.committed_per_cycle::8      3991508      0.85%    100.00% # Number of insts commited each cycle
system.cpu1.commit.committed_per_cycle::overflows            0      0.00%    100.00% # Number of insts commited each cycle
system.cpu1.commit.committed_per_cycle::min_value            0                       # Number of insts commited each cycle
system.cpu1.commit.committed_per_cycle::max_value            8                       # Number of insts commited each cycle
system.cpu1.commit.committed_per_cycle::total    467596213                       # Number of insts commited each cycle
system.cpu1.commit.fp_insts                        12                       # Number of committed floating point instructions.
system.cpu1.commit.function_calls             1797963                       # Number of function calls committed.
system.cpu1.commit.int_insts                116602192                       # Number of committed integer instructions.
system.cpu1.commit.loads                     30175784                       # Number of loads committed
system.cpu1.commit.membars                    4200120                       # Number of memory barriers committed
system.cpu1.commit.op_class_0::No_OpClass      4200120      3.44%      3.44% # Class of committed instruction
system.cpu1.commit.op_class_0::IntAlu        76667461     62.76%     66.20% # Class of committed instruction
system.cpu1.commit.op_class_0::IntMult             44      0.00%     66.20% # Class of committed instruction
system.cpu1.commit.op_class_0::IntDiv              88      0.00%     66.20% # Class of committed instruction
system.cpu1.commit.op_class_0::FloatAdd             0      0.00%     66.20% # Class of committed instruction
system.cpu1.commit.op_class_0::FloatCmp             0      0.00%     66.20% # Class of committed instruction
system.cpu1.commit.op_class_0::FloatCvt             0      0.00%     66.20% # Class of committed instruction
system.cpu1.commit.op_class_0::FloatMult            0      0.00%     66.20% # Class of committed instruction
system.cpu1.commit.op_class_0::FloatMultAcc            0      0.00%     66.20% # Class of committed instruction
system.cpu1.commit.op_class_0::FloatDiv             0      0.00%     66.20% # Class of committed instruction
system.cpu1.commit.op_class_0::FloatMisc            0      0.00%     66.20% # Class of committed instruction
system.cpu1.commit.op_class_0::FloatSqrt            0      0.00%     66.20% # Class of committed instruction
system.cpu1.commit.op_class_0::SimdAdd              0      0.00%     66.20% # Class of committed instruction
system.cpu1.commit.op_class_0::SimdAddAcc            0      0.00%     66.20% # Class of committed instruction
system.cpu1.commit.op_class_0::SimdAlu              0      0.00%     66.20% # Class of committed instruction
system.cpu1.commit.op_class_0::SimdCmp              0      0.00%     66.20% # Class of committed instruction
system.cpu1.commit.op_class_0::SimdCvt              0      0.00%     66.20% # Class of committed instruction
system.cpu1.commit.op_class_0::SimdMisc             0      0.00%     66.20% # Class of committed instruction
system.cpu1.commit.op_class_0::SimdMult             0      0.00%     66.20% # Class of committed instruction
system.cpu1.commit.op_class_0::SimdMultAcc            0      0.00%     66.20% # Class of committed instruction
system.cpu1.commit.op_class_0::SimdShift            0      0.00%     66.20% # Class of committed instruction
system.cpu1.commit.op_class_0::SimdShiftAcc            0      0.00%     66.20% # Class of committed instruction
system.cpu1.commit.op_class_0::SimdDiv              0      0.00%     66.20% # Class of committed instruction
system.cpu1.commit.op_class_0::SimdSqrt             0      0.00%     66.20% # Class of committed instruction
system.cpu1.commit.op_class_0::SimdFloatAdd            0      0.00%     66.20% # Class of committed instruction
system.cpu1.commit.op_class_0::SimdFloatAlu            0      0.00%     66.20% # Class of committed instruction
system.cpu1.commit.op_class_0::SimdFloatCmp            0      0.00%     66.20% # Class of committed instruction
system.cpu1.commit.op_class_0::SimdFloatCvt            0      0.00%     66.20% # Class of committed instruction
system.cpu1.commit.op_class_0::SimdFloatDiv            0      0.00%     66.20% # Class of committed instruction
system.cpu1.commit.op_class_0::SimdFloatMisc            0      0.00%     66.20% # Class of committed instruction
system.cpu1.commit.op_class_0::SimdFloatMult            0      0.00%     66.20% # Class of committed instruction
system.cpu1.commit.op_class_0::SimdFloatMultAcc            0      0.00%     66.20% # Class of committed instruction
system.cpu1.commit.op_class_0::SimdFloatSqrt            0      0.00%     66.20% # Class of committed instruction
system.cpu1.commit.op_class_0::SimdReduceAdd            0      0.00%     66.20% # Class of committed instruction
system.cpu1.commit.op_class_0::SimdReduceAlu            0      0.00%     66.20% # Class of committed instruction
system.cpu1.commit.op_class_0::SimdReduceCmp            0      0.00%     66.20% # Class of committed instruction
system.cpu1.commit.op_class_0::SimdFloatReduceAdd            0      0.00%     66.20% # Class of committed instruction
system.cpu1.commit.op_class_0::SimdFloatReduceCmp            0      0.00%     66.20% # Class of committed instruction
system.cpu1.commit.op_class_0::SimdAes              0      0.00%     66.20% # Class of committed instruction
system.cpu1.commit.op_class_0::SimdAesMix            0      0.00%     66.20% # Class of committed instruction
system.cpu1.commit.op_class_0::SimdSha1Hash            0      0.00%     66.20% # Class of committed instruction
system.cpu1.commit.op_class_0::SimdSha1Hash2            0      0.00%     66.20% # Class of committed instruction
system.cpu1.commit.op_class_0::SimdSha256Hash            0      0.00%     66.20% # Class of committed instruction
system.cpu1.commit.op_class_0::SimdSha256Hash2            0      0.00%     66.20% # Class of committed instruction
system.cpu1.commit.op_class_0::SimdShaSigma2            0      0.00%     66.20% # Class of committed instruction
system.cpu1.commit.op_class_0::SimdShaSigma3            0      0.00%     66.20% # Class of committed instruction
system.cpu1.commit.op_class_0::SimdPredAlu            0      0.00%     66.20% # Class of committed instruction
system.cpu1.commit.op_class_0::MemRead       32275780     26.42%     92.62% # Class of committed instruction
system.cpu1.commit.op_class_0::MemWrite       9021531      7.38%    100.00% # Class of committed instruction
system.cpu1.commit.op_class_0::FloatMemRead            0      0.00%    100.00% # Class of committed instruction
system.cpu1.commit.op_class_0::FloatMemWrite           12      0.00%    100.00% # Class of committed instruction
system.cpu1.commit.op_class_0::IprAccess            0      0.00%    100.00% # Class of committed instruction
system.cpu1.commit.op_class_0::InstPrefetch            0      0.00%    100.00% # Class of committed instruction
system.cpu1.commit.op_class_0::total        122165036                       # Class of committed instruction
system.cpu1.commit.refs                      41297323                       # Number of memory references committed
system.cpu1.commit.swp_count                        0                       # Number of s/w prefetches committed
system.cpu1.commit.vec_insts                        0                       # Number of committed Vector instructions.
system.cpu1.committedInsts                  120064860                       # Number of Instructions Simulated
system.cpu1.committedOps                    122165036                       # Number of Ops (including micro ops) Simulated
system.cpu1.cpi                              3.928242                       # CPI: Cycles Per Instruction
system.cpu1.cpi_total                        3.928242                       # CPI: Total CPI of All Threads
system.cpu1.decode.BlockedCycles            373646117                       # Number of cycles decode is blocked
system.cpu1.decode.BranchMispred               881636                       # Number of times decode detected a branch misprediction
system.cpu1.decode.BranchResolved            19766016                       # Number of times decode resolved a branch
system.cpu1.decode.DecodedInsts             145681441                       # Number of instructions handled by decode
system.cpu1.decode.IdleCycles                23388015                       # Number of cycles decode is idle
system.cpu1.decode.RunCycles                 66811724                       # Number of cycles decode is running
system.cpu1.decode.SquashCycles               1984997                       # Number of cycles decode is squashing
system.cpu1.decode.SquashedInsts              2065876                       # Number of squashed instructions handled by decode
system.cpu1.decode.UnblockCycles              5160634                       # Number of cycles decode is unblocking
system.cpu1.dtb.accesses                            0                       # DTB accesses
system.cpu1.dtb.hits                                0                       # DTB hits
system.cpu1.dtb.misses                              0                       # DTB misses
system.cpu1.dtb.read_accesses                       0                       # DTB read accesses
system.cpu1.dtb.read_hits                           0                       # DTB read hits
system.cpu1.dtb.read_misses                         0                       # DTB read misses
system.cpu1.dtb.write_accesses                      0                       # DTB write accesses
system.cpu1.dtb.write_hits                          0                       # DTB write hits
system.cpu1.dtb.write_misses                        0                       # DTB write misses
system.cpu1.fetch.Branches                   35273200                       # Number of branches that fetch encountered
system.cpu1.fetch.CacheLines                 21656486                       # Number of cache lines fetched
system.cpu1.fetch.Cycles                    444871910                       # Number of cycles fetch has run and was not squashing or blocked
system.cpu1.fetch.IcacheSquashes               203071                       # Number of outstanding Icache misses that were squashed
system.cpu1.fetch.Insts                     151173144                       # Number of instructions fetch has processed
system.cpu1.fetch.MiscStallCycles                   1                       # Number of cycles fetch has spent waiting on interrupts, or bad addresses, or out of MSHRs
system.cpu1.fetch.SquashCycles                5576850                       # Number of cycles fetch has spent squashing
system.cpu1.fetch.branchRate                 0.074788                       # Number of branch fetches per cycle
system.cpu1.fetch.icacheStallCycles          23331151                       # Number of cycles fetch is stalled on an Icache miss
system.cpu1.fetch.predictedBranches          21786363                       # Number of branches that fetch has predicted taken
system.cpu1.fetch.rate                       0.320524                       # Number of inst fetches per cycle
system.cpu1.fetch.rateDist::samples         470991487                       # Number of instructions fetched each cycle (Total)
system.cpu1.fetch.rateDist::mean             0.325428                       # Number of instructions fetched each cycle (Total)
system.cpu1.fetch.rateDist::stdev            0.751899                       # Number of instructions fetched each cycle (Total)
system.cpu1.fetch.rateDist::underflows              0      0.00%      0.00% # Number of instructions fetched each cycle (Total)
system.cpu1.fetch.rateDist::0               373846581     79.37%     79.37% # Number of instructions fetched each cycle (Total)
system.cpu1.fetch.rateDist::1                61304106     13.02%     92.39% # Number of instructions fetched each cycle (Total)
system.cpu1.fetch.rateDist::2                19876057      4.22%     96.61% # Number of instructions fetched each cycle (Total)
system.cpu1.fetch.rateDist::3                12275291      2.61%     99.22% # Number of instructions fetched each cycle (Total)
system.cpu1.fetch.rateDist::4                 3121239      0.66%     99.88% # Number of instructions fetched each cycle (Total)
system.cpu1.fetch.rateDist::5                  503539      0.11%     99.99% # Number of instructions fetched each cycle (Total)
system.cpu1.fetch.rateDist::6                   63909      0.01%    100.00% # Number of instructions fetched each cycle (Total)
system.cpu1.fetch.rateDist::7                     549      0.00%    100.00% # Number of instructions fetched each cycle (Total)
system.cpu1.fetch.rateDist::8                     216      0.00%    100.00% # Number of instructions fetched each cycle (Total)
system.cpu1.fetch.rateDist::overflows               0      0.00%    100.00% # Number of instructions fetched each cycle (Total)
system.cpu1.fetch.rateDist::min_value               0                       # Number of instructions fetched each cycle (Total)
system.cpu1.fetch.rateDist::max_value               8                       # Number of instructions fetched each cycle (Total)
system.cpu1.fetch.rateDist::total           470991487                       # Number of instructions fetched each cycle (Total)
system.cpu1.fp_regfile_reads                       12                       # number of floating regfile reads
system.cpu1.idleCycles                         652346                       # Total number of cycles that the CPU has spent unscheduled due to idling
system.cpu1.iew.branchMispredicts             2083221                       # Number of branch mispredicts detected at execute
system.cpu1.iew.exec_branches                30582027                       # Number of branches executed
system.cpu1.iew.exec_nop                            0                       # number of nop insts executed
system.cpu1.iew.exec_rate                    0.283366                       # Inst execution rate
system.cpu1.iew.exec_refs                    45608230                       # number of memory reference insts executed
system.cpu1.iew.exec_stores                  11547323                       # Number of stores executed
system.cpu1.iew.exec_swp                            0                       # number of swp insts executed
system.cpu1.iew.iewBlockCycles              310893183                       # Number of cycles IEW is blocking
system.cpu1.iew.iewDispLoadInsts             34905828                       # Number of dispatched load instructions
system.cpu1.iew.iewDispNonSpecInsts           2100667                       # Number of dispatched non-speculative instructions
system.cpu1.iew.iewDispSquashedInsts          1972283                       # Number of squashed instructions skipped by dispatch
system.cpu1.iew.iewDispStoreInsts            11938967                       # Number of dispatched store instructions
system.cpu1.iew.iewDispatchedInsts          138874040                       # Number of instructions dispatched to IQ
system.cpu1.iew.iewExecLoadInsts             34060907                       # Number of load instructions executed
system.cpu1.iew.iewExecSquashedInsts          2011702                       # Number of squashed instructions skipped in execute
system.cpu1.iew.iewExecutedInsts            133647696                       # Number of executed instructions
system.cpu1.iew.iewIQFullEvents               1837625                       # Number of times the IQ has become full, causing a stall
system.cpu1.iew.iewIdleCycles                       0                       # Number of cycles IEW is idle
system.cpu1.iew.iewLSQFullEvents              6397129                       # Number of times the LSQ has become full, causing a stall
system.cpu1.iew.iewSquashCycles               1984997                       # Number of cycles IEW is squashing
system.cpu1.iew.iewUnblockCycles             10577095                       # Number of cycles IEW is unblocking
system.cpu1.iew.lsq.thread0.blockedLoads            0                       # Number of blocked loads due to partial load-store forwarding
system.cpu1.iew.lsq.thread0.cacheBlocked        89267                       # Number of times an access to memory failed due to the cache being blocked
system.cpu1.iew.lsq.thread0.forwLoads         1067208                       # Number of loads that had data forwarded from stores
system.cpu1.iew.lsq.thread0.ignoredResponses        31851                       # Number of memory responses ignored because the instruction is squashed
system.cpu1.iew.lsq.thread0.invAddrLoads            0                       # Number of loads ignored due to an invalid address
system.cpu1.iew.lsq.thread0.invAddrSwpfs            0                       # Number of software prefetches ignored due to an invalid address
system.cpu1.iew.lsq.thread0.memOrderViolation         2046                       # Number of memory ordering violations
system.cpu1.iew.lsq.thread0.rescheduledLoads        14625                       # Number of loads that were rescheduled
system.cpu1.iew.lsq.thread0.squashedLoads      4730044                       # Number of loads squashed
system.cpu1.iew.lsq.thread0.squashedStores       817428                       # Number of stores squashed
system.cpu1.iew.memOrderViolationEvents          2046                       # Number of memory order violations
system.cpu1.iew.predictedNotTakenIncorrect       538209                       # Number of branches that were predicted not taken incorrectly
system.cpu1.iew.predictedTakenIncorrect       1545012                       # Number of branches that were predicted taken incorrectly
system.cpu1.iew.wb_consumers                 75416711                       # num instructions consuming a value
system.cpu1.iew.wb_count                    132119817                       # cumulative count of insts written-back
system.cpu1.iew.wb_fanout                    0.855809                       # average fanout of values written-back
system.cpu1.iew.wb_producers                 64542336                       # num instructions producing a value
system.cpu1.iew.wb_rate                      0.280126                       # insts written-back per cycle
system.cpu1.iew.wb_sent                     132185721                       # cumulative count of insts sent to commit
system.cpu1.int_regfile_reads               169551509                       # number of integer regfile reads
system.cpu1.int_regfile_writes               88977750                       # number of integer regfile writes
system.cpu1.ipc                              0.254567                       # IPC: Instructions Per Cycle
system.cpu1.ipc_total                        0.254567                       # IPC: Total IPC of All Threads
system.cpu1.iq.FU_type_0::No_OpClass          4200224      3.10%      3.10% # Type of FU issued
system.cpu1.iq.FU_type_0::IntAlu             85296667     62.88%     65.97% # Type of FU issued
system.cpu1.iq.FU_type_0::IntMult                  45      0.00%     65.97% # Type of FU issued
system.cpu1.iq.FU_type_0::IntDiv                   90      0.00%     65.97% # Type of FU issued
system.cpu1.iq.FU_type_0::FloatAdd                  0      0.00%     65.97% # Type of FU issued
system.cpu1.iq.FU_type_0::FloatCmp                  0      0.00%     65.97% # Type of FU issued
system.cpu1.iq.FU_type_0::FloatCvt                  0      0.00%     65.97% # Type of FU issued
system.cpu1.iq.FU_type_0::FloatMult                 0      0.00%     65.97% # Type of FU issued
system.cpu1.iq.FU_type_0::FloatMultAcc              0      0.00%     65.97% # Type of FU issued
system.cpu1.iq.FU_type_0::FloatDiv                  0      0.00%     65.97% # Type of FU issued
system.cpu1.iq.FU_type_0::FloatMisc                 0      0.00%     65.97% # Type of FU issued
system.cpu1.iq.FU_type_0::FloatSqrt                 0      0.00%     65.97% # Type of FU issued
system.cpu1.iq.FU_type_0::SimdAdd                   0      0.00%     65.97% # Type of FU issued
system.cpu1.iq.FU_type_0::SimdAddAcc                0      0.00%     65.97% # Type of FU issued
system.cpu1.iq.FU_type_0::SimdAlu                   0      0.00%     65.97% # Type of FU issued
system.cpu1.iq.FU_type_0::SimdCmp                   0      0.00%     65.97% # Type of FU issued
system.cpu1.iq.FU_type_0::SimdCvt                   0      0.00%     65.97% # Type of FU issued
system.cpu1.iq.FU_type_0::SimdMisc                  0      0.00%     65.97% # Type of FU issued
system.cpu1.iq.FU_type_0::SimdMult                  0      0.00%     65.97% # Type of FU issued
system.cpu1.iq.FU_type_0::SimdMultAcc               0      0.00%     65.97% # Type of FU issued
system.cpu1.iq.FU_type_0::SimdShift                 0      0.00%     65.97% # Type of FU issued
system.cpu1.iq.FU_type_0::SimdShiftAcc              0      0.00%     65.97% # Type of FU issued
system.cpu1.iq.FU_type_0::SimdDiv                   0      0.00%     65.97% # Type of FU issued
system.cpu1.iq.FU_type_0::SimdSqrt                  0      0.00%     65.97% # Type of FU issued
system.cpu1.iq.FU_type_0::SimdFloatAdd              0      0.00%     65.97% # Type of FU issued
system.cpu1.iq.FU_type_0::SimdFloatAlu              0      0.00%     65.97% # Type of FU issued
system.cpu1.iq.FU_type_0::SimdFloatCmp              0      0.00%     65.97% # Type of FU issued
system.cpu1.iq.FU_type_0::SimdFloatCvt              0      0.00%     65.97% # Type of FU issued
system.cpu1.iq.FU_type_0::SimdFloatDiv              0      0.00%     65.97% # Type of FU issued
system.cpu1.iq.FU_type_0::SimdFloatMisc             0      0.00%     65.97% # Type of FU issued
system.cpu1.iq.FU_type_0::SimdFloatMult             0      0.00%     65.97% # Type of FU issued
system.cpu1.iq.FU_type_0::SimdFloatMultAcc            0      0.00%     65.97% # Type of FU issued
system.cpu1.iq.FU_type_0::SimdFloatSqrt             0      0.00%     65.97% # Type of FU issued
system.cpu1.iq.FU_type_0::SimdReduceAdd             0      0.00%     65.97% # Type of FU issued
system.cpu1.iq.FU_type_0::SimdReduceAlu             0      0.00%     65.97% # Type of FU issued
system.cpu1.iq.FU_type_0::SimdReduceCmp             0      0.00%     65.97% # Type of FU issued
system.cpu1.iq.FU_type_0::SimdFloatReduceAdd            0      0.00%     65.97% # Type of FU issued
system.cpu1.iq.FU_type_0::SimdFloatReduceCmp            0      0.00%     65.97% # Type of FU issued
system.cpu1.iq.FU_type_0::SimdAes                   0      0.00%     65.97% # Type of FU issued
system.cpu1.iq.FU_type_0::SimdAesMix                0      0.00%     65.97% # Type of FU issued
system.cpu1.iq.FU_type_0::SimdSha1Hash              0      0.00%     65.97% # Type of FU issued
system.cpu1.iq.FU_type_0::SimdSha1Hash2             0      0.00%     65.97% # Type of FU issued
system.cpu1.iq.FU_type_0::SimdSha256Hash            0      0.00%     65.97% # Type of FU issued
system.cpu1.iq.FU_type_0::SimdSha256Hash2            0      0.00%     65.97% # Type of FU issued
system.cpu1.iq.FU_type_0::SimdShaSigma2             0      0.00%     65.97% # Type of FU issued
system.cpu1.iq.FU_type_0::SimdShaSigma3             0      0.00%     65.97% # Type of FU issued
system.cpu1.iq.FU_type_0::SimdPredAlu               0      0.00%     65.97% # Type of FU issued
system.cpu1.iq.FU_type_0::MemRead            36627957     27.00%     92.97% # Type of FU issued
system.cpu1.iq.FU_type_0::MemWrite            9534403      7.03%    100.00% # Type of FU issued
system.cpu1.iq.FU_type_0::FloatMemRead              0      0.00%    100.00% # Type of FU issued
system.cpu1.iq.FU_type_0::FloatMemWrite            12      0.00%    100.00% # Type of FU issued
system.cpu1.iq.FU_type_0::IprAccess                 0      0.00%    100.00% # Type of FU issued
system.cpu1.iq.FU_type_0::InstPrefetch              0      0.00%    100.00% # Type of FU issued
system.cpu1.iq.FU_type_0::total             135659398                       # Type of FU issued
system.cpu1.iq.fp_alu_accesses                     14                       # Number of floating point alu accesses
system.cpu1.iq.fp_inst_queue_reads                 26                       # Number of floating instruction queue reads
system.cpu1.iq.fp_inst_queue_wakeup_accesses           12                       # Number of floating instruction queue wakeup accesses
system.cpu1.iq.fp_inst_queue_writes                12                       # Number of floating instruction queue writes
system.cpu1.iq.fu_busy_cnt                    2799021                       # FU busy when requested
system.cpu1.iq.fu_busy_rate                  0.020633                       # FU busy rate (busy events/executed inst)
system.cpu1.iq.fu_full::No_OpClass                  0      0.00%      0.00% # attempts to use FU when none available
system.cpu1.iq.fu_full::IntAlu                 542227     19.37%     19.37% # attempts to use FU when none available
system.cpu1.iq.fu_full::IntMult                     0      0.00%     19.37% # attempts to use FU when none available
system.cpu1.iq.fu_full::IntDiv                      0      0.00%     19.37% # attempts to use FU when none available
system.cpu1.iq.fu_full::FloatAdd                    0      0.00%     19.37% # attempts to use FU when none available
system.cpu1.iq.fu_full::FloatCmp                    0      0.00%     19.37% # attempts to use FU when none available
system.cpu1.iq.fu_full::FloatCvt                    0      0.00%     19.37% # attempts to use FU when none available
system.cpu1.iq.fu_full::FloatMult                   0      0.00%     19.37% # attempts to use FU when none available
system.cpu1.iq.fu_full::FloatMultAcc                0      0.00%     19.37% # attempts to use FU when none available
system.cpu1.iq.fu_full::FloatDiv                    0      0.00%     19.37% # attempts to use FU when none available
system.cpu1.iq.fu_full::FloatMisc                   0      0.00%     19.37% # attempts to use FU when none available
system.cpu1.iq.fu_full::FloatSqrt                   0      0.00%     19.37% # attempts to use FU when none available
system.cpu1.iq.fu_full::SimdAdd                     0      0.00%     19.37% # attempts to use FU when none available
system.cpu1.iq.fu_full::SimdAddAcc                  0      0.00%     19.37% # attempts to use FU when none available
system.cpu1.iq.fu_full::SimdAlu                     0      0.00%     19.37% # attempts to use FU when none available
system.cpu1.iq.fu_full::SimdCmp                     0      0.00%     19.37% # attempts to use FU when none available
system.cpu1.iq.fu_full::SimdCvt                     0      0.00%     19.37% # attempts to use FU when none available
system.cpu1.iq.fu_full::SimdMisc                    0      0.00%     19.37% # attempts to use FU when none available
system.cpu1.iq.fu_full::SimdMult                    0      0.00%     19.37% # attempts to use FU when none available
system.cpu1.iq.fu_full::SimdMultAcc                 0      0.00%     19.37% # attempts to use FU when none available
system.cpu1.iq.fu_full::SimdShift                   0      0.00%     19.37% # attempts to use FU when none available
system.cpu1.iq.fu_full::SimdShiftAcc                0      0.00%     19.37% # attempts to use FU when none available
system.cpu1.iq.fu_full::SimdDiv                     0      0.00%     19.37% # attempts to use FU when none available
system.cpu1.iq.fu_full::SimdSqrt                    0      0.00%     19.37% # attempts to use FU when none available
system.cpu1.iq.fu_full::SimdFloatAdd                0      0.00%     19.37% # attempts to use FU when none available
system.cpu1.iq.fu_full::SimdFloatAlu                0      0.00%     19.37% # attempts to use FU when none available
system.cpu1.iq.fu_full::SimdFloatCmp                0      0.00%     19.37% # attempts to use FU when none available
system.cpu1.iq.fu_full::SimdFloatCvt                0      0.00%     19.37% # attempts to use FU when none available
system.cpu1.iq.fu_full::SimdFloatDiv                0      0.00%     19.37% # attempts to use FU when none available
system.cpu1.iq.fu_full::SimdFloatMisc               0      0.00%     19.37% # attempts to use FU when none available
system.cpu1.iq.fu_full::SimdFloatMult               0      0.00%     19.37% # attempts to use FU when none available
system.cpu1.iq.fu_full::SimdFloatMultAcc            0      0.00%     19.37% # attempts to use FU when none available
system.cpu1.iq.fu_full::SimdFloatSqrt               0      0.00%     19.37% # attempts to use FU when none available
system.cpu1.iq.fu_full::SimdReduceAdd               0      0.00%     19.37% # attempts to use FU when none available
system.cpu1.iq.fu_full::SimdReduceAlu               0      0.00%     19.37% # attempts to use FU when none available
system.cpu1.iq.fu_full::SimdReduceCmp               0      0.00%     19.37% # attempts to use FU when none available
system.cpu1.iq.fu_full::SimdFloatReduceAdd            0      0.00%     19.37% # attempts to use FU when none available
system.cpu1.iq.fu_full::SimdFloatReduceCmp            0      0.00%     19.37% # attempts to use FU when none available
system.cpu1.iq.fu_full::SimdAes                     0      0.00%     19.37% # attempts to use FU when none available
system.cpu1.iq.fu_full::SimdAesMix                  0      0.00%     19.37% # attempts to use FU when none available
system.cpu1.iq.fu_full::SimdSha1Hash                0      0.00%     19.37% # attempts to use FU when none available
system.cpu1.iq.fu_full::SimdSha1Hash2               0      0.00%     19.37% # attempts to use FU when none available
system.cpu1.iq.fu_full::SimdSha256Hash              0      0.00%     19.37% # attempts to use FU when none available
system.cpu1.iq.fu_full::SimdSha256Hash2             0      0.00%     19.37% # attempts to use FU when none available
system.cpu1.iq.fu_full::SimdShaSigma2               0      0.00%     19.37% # attempts to use FU when none available
system.cpu1.iq.fu_full::SimdShaSigma3               0      0.00%     19.37% # attempts to use FU when none available
system.cpu1.iq.fu_full::SimdPredAlu                 0      0.00%     19.37% # attempts to use FU when none available
system.cpu1.iq.fu_full::MemRead               1801431     64.36%     83.73% # attempts to use FU when none available
system.cpu1.iq.fu_full::MemWrite               455361     16.27%    100.00% # attempts to use FU when none available
[...]
system.cpu1.dcache.ReadReq_avg_mshr_miss_latency::total 106308.600673                       # average ReadReq mshr miss latency
system.cpu1.dcache.WriteReq_hits::.cpu1.data      5653294                       # number of WriteReq hits
system.cpu1.dcache.WriteReq_hits::total       5653294                       # number of WriteReq hits
system.cpu1.dcache.WriteReq_misses::.cpu1.data      2084632                       # number of WriteReq misses
system.cpu1.dcache.WriteReq_misses::total      2084632                       # number of WriteReq misses
system.cpu1.dcache.WriteReq_miss_latency::.cpu1.data 132089094900                       # number of WriteReq miss cycles
system.cpu1.dcache.WriteReq_miss_latency::total 132089094900                       # number of WriteReq miss cycles
system.cpu1.dcache.WriteReq_accesses::.cpu1.data      7737926                       # number of WriteReq accesses(hits+misses)
system.cpu1.dcache.WriteReq_accesses::total      7737926                       # number of WriteReq accesses(hits+misses)
system.cpu1.dcache.WriteReq_miss_rate::.cpu1.data     0.269404                       # miss rate for WriteReq accesses
system.cpu1.dcache.WriteReq_miss_rate::total     0.269404                       # miss rate for WriteReq accesses
system.cpu1.dcache.WriteReq_avg_miss_latency::.cpu1.data 63363.267426                       # average WriteReq miss latency
system.cpu1.dcache.WriteReq_avg_miss_latency::total 63363.267426                       # average WriteReq miss latency
system.cpu1.dcache.WriteReq_mshr_hits::.cpu1.data      1868238                       # number of WriteReq MSHR hits
system.cpu1.dcache.WriteReq_mshr_hits::total      1868238                       # number of WriteReq MSHR hits
system.cpu1.dcache.WriteReq_mshr_misses::.cpu1.data       216394                       # number of WriteReq MSHR misses
system.cpu1.dcache.WriteReq_mshr_misses::total       216394                       # number of WriteReq MSHR misses
system.cpu1.dcache.WriteReq_mshr_miss_latency::.cpu1.data  12355205405                       # number of WriteReq MSHR miss cycles
system.cpu1.dcache.WriteReq_mshr_miss_latency::total  12355205405                       # number of WriteReq MSHR miss cycles
system.cpu1.dcache.WriteReq_mshr_miss_rate::.cpu1.data     0.027965                       # mshr miss rate for WriteReq accesses
system.cpu1.dcache.WriteReq_mshr_miss_rate::total     0.027965                       # mshr miss rate for WriteReq accesses
system.cpu1.dcache.WriteReq_avg_mshr_miss_latency::.cpu1.data 57095.877913                       # average WriteReq mshr miss latency
system.cpu1.dcache.WriteReq_avg_mshr_miss_latency::total 57095.877913                       # average WriteReq mshr miss latency
system.cpu1.dcache.LoadLockedReq_hits::.cpu1.data         1260                       # number of LoadLockedReq hits
system.cpu1.dcache.LoadLockedReq_hits::total         1260                       # number of LoadLockedReq hits
system.cpu1.dcache.LoadLockedReq_misses::.cpu1.data          261                       # number of LoadLockedReq misses
system.cpu1.dcache.LoadLockedReq_misses::total          261                       # number of LoadLockedReq misses
system.cpu1.dcache.LoadLockedReq_miss_latency::.cpu1.data     23935500                       # number of LoadLockedReq miss cycles
system.cpu1.dcache.LoadLockedReq_miss_latency::total     23935500                       # number of LoadLockedReq miss cycles
system.cpu1.dcache.LoadLockedReq_accesses::.cpu1.data         1521                       # number of LoadLockedReq accesses(hits+misses)
system.cpu1.dcache.LoadLockedReq_accesses::total         1521                       # number of LoadLockedReq accesses(hits+misses)
system.cpu1.dcache.LoadLockedReq_miss_rate::.cpu1.data     0.171598                       # miss rate for LoadLockedReq accesses
system.cpu1.dcache.LoadLockedReq_miss_rate::total     0.171598                       # miss rate for LoadLockedReq accesses
system.cpu1.dcache.LoadLockedReq_avg_miss_latency::.cpu1.data 91706.896552                       # average LoadLockedReq miss latency
system.cpu1.dcache.LoadLockedReq_avg_miss_latency::total 91706.896552                       # average LoadLockedReq miss latency
system.cpu1.dcache.LoadLockedReq_mshr_hits::.cpu1.data          116                       # number of LoadLockedReq MSHR hits
system.cpu1.dcache.LoadLockedReq_mshr_hits::total          116                       # number of LoadLockedReq MSHR hits
system.cpu1.dcache.LoadLockedReq_mshr_misses::.cpu1.data          145                       # number of LoadLockedReq MSHR misses
system.cpu1.dcache.LoadLockedReq_mshr_misses::total          145                       # number of LoadLockedReq MSHR misses
system.cpu1.dcache.LoadLockedReq_mshr_miss_latency::.cpu1.data     13181500                       # number of LoadLockedReq MSHR miss cycles
system.cpu1.dcache.LoadLockedReq_mshr_miss_latency::total     13181500                       # number of LoadLockedReq MSHR miss cycles
system.cpu1.dcache.LoadLockedReq_mshr_miss_rate::.cpu1.data     0.095332                       # mshr miss rate for LoadLockedReq accesses
system.cpu1.dcache.LoadLockedReq_mshr_miss_rate::total     0.095332                       # mshr miss rate for LoadLockedReq accesses
system.cpu1.dcache.LoadLockedReq_avg_mshr_miss_latency::.cpu1.data 90906.896552                       # average LoadLockedReq mshr miss latency
system.cpu1.dcache.LoadLockedReq_avg_mshr_miss_latency::total 90906.896552                       # average LoadLockedReq mshr miss latency
system.cpu1.dcache.StoreCondReq_hits::.cpu1.data         1023                       # number of StoreCondReq hits
system.cpu1.dcache.StoreCondReq_hits::total         1023                       # number of StoreCondReq hits
system.cpu1.dcache.StoreCondReq_misses::.cpu1.data          415                       # number of StoreCondReq misses
system.cpu1.dcache.StoreCondReq_misses::total          415                       # number of StoreCondReq misses
system.cpu1.dcache.StoreCondReq_miss_latency::.cpu1.data      3788500                       # number of StoreCondReq miss cycles
system.cpu1.dcache.StoreCondReq_miss_latency::total      3788500                       # number of StoreCondReq miss cycles
system.cpu1.dcache.StoreCondReq_accesses::.cpu1.data         1438                       # number of StoreCondReq accesses(hits+misses)
system.cpu1.dcache.StoreCondReq_accesses::total         1438                       # number of StoreCondReq accesses(hits+misses)
system.cpu1.dcache.StoreCondReq_miss_rate::.cpu1.data     0.288595                       # miss rate for StoreCondReq accesses
system.cpu1.dcache.StoreCondReq_miss_rate::total     0.288595                       # miss rate for StoreCondReq accesses
system.cpu1.dcache.StoreCondReq_avg_miss_latency::.cpu1.data  9128.915663                       # average StoreCondReq miss latency
system.cpu1.dcache.StoreCondReq_avg_miss_latency::total  9128.915663                       # average StoreCondReq miss latency
system.cpu1.dcache.StoreCondReq_mshr_misses::.cpu1.data          415                       # number of StoreCondReq MSHR misses
system.cpu1.dcache.StoreCondReq_mshr_misses::total          415                       # number of StoreCondReq MSHR misses
system.cpu1.dcache.StoreCondReq_mshr_miss_latency::.cpu1.data      3374500                       # number of StoreCondReq MSHR miss cycles
system.cpu1.dcache.StoreCondReq_mshr_miss_latency::total      3374500                       # number of StoreCondReq MSHR miss cycles
system.cpu1.dcache.StoreCondReq_mshr_miss_rate::.cpu1.data     0.288595                       # mshr miss rate for StoreCondReq accesses
system.cpu1.dcache.StoreCondReq_mshr_miss_rate::total     0.288595                       # mshr miss rate for StoreCondReq accesses
system.cpu1.dcache.StoreCondReq_avg_mshr_miss_latency::.cpu1.data  8131.325301                       # average StoreCondReq mshr miss latency
system.cpu1.dcache.StoreCondReq_avg_mshr_miss_latency::total  8131.325301                       # average StoreCondReq mshr miss latency
system.cpu1.dcache.StoreCondFailReq_miss_latency::.cpu1.data        33500                       # number of StoreCondFailReq miss cycles
system.cpu1.dcache.StoreCondFailReq_miss_latency::total        33500                       # number of StoreCondFailReq miss cycles
system.cpu1.dcache.StoreCondFailReq_avg_miss_latency::.cpu1.data          inf                       # average StoreCondFailReq miss latency
system.cpu1.dcache.StoreCondFailReq_avg_miss_latency::total          inf                       # average StoreCondFailReq miss latency
system.cpu1.dcache.StoreCondFailReq_mshr_miss_latency::.cpu1.data        32500                       # number of StoreCondFailReq MSHR miss cycles
system.cpu1.dcache.StoreCondFailReq_mshr_miss_latency::total        32500                       # number of StoreCondFailReq MSHR miss cycles
system.cpu1.dcache.StoreCondFailReq_avg_mshr_miss_latency::.cpu1.data          inf                       # average StoreCondFailReq mshr miss latency
system.cpu1.dcache.StoreCondFailReq_avg_mshr_miss_latency::total          inf                       # average StoreCondFailReq mshr miss latency
system.cpu1.dcache.SwapReq_hits::.cpu1.data          561                       # number of SwapReq hits
system.cpu1.dcache.SwapReq_hits::total            561                       # number of SwapReq hits
system.cpu1.dcache.SwapReq_misses::.cpu1.data          270                       # number of SwapReq misses
system.cpu1.dcache.SwapReq_misses::total          270                       # number of SwapReq misses
system.cpu1.dcache.SwapReq_miss_latency::.cpu1.data      1348000                       # number of SwapReq miss cycles
system.cpu1.dcache.SwapReq_miss_latency::total      1348000                       # number of SwapReq miss cycles
system.cpu1.dcache.SwapReq_accesses::.cpu1.data          831                       # number of SwapReq accesses(hits+misses)
system.cpu1.dcache.SwapReq_accesses::total          831                       # number of SwapReq accesses(hits+misses)
system.cpu1.dcache.SwapReq_miss_rate::.cpu1.data     0.324910                       # miss rate for SwapReq accesses
system.cpu1.dcache.SwapReq_miss_rate::total     0.324910                       # miss rate for SwapReq accesses
system.cpu1.dcache.SwapReq_avg_miss_latency::.cpu1.data  4992.592593                       # average SwapReq miss latency
system.cpu1.dcache.SwapReq_avg_miss_latency::total  4992.592593                       # average SwapReq miss latency
system.cpu1.dcache.SwapReq_mshr_misses::.cpu1.data          270                       # number of SwapReq MSHR misses
system.cpu1.dcache.SwapReq_mshr_misses::total          270                       # number of SwapReq MSHR misses
system.cpu1.dcache.SwapReq_mshr_miss_latency::.cpu1.data      1078000                       # number of SwapReq MSHR miss cycles
system.cpu1.dcache.SwapReq_mshr_miss_latency::total      1078000                       # number of SwapReq MSHR miss cycles
system.cpu1.dcache.SwapReq_mshr_miss_rate::.cpu1.data     0.324910                       # mshr miss rate for SwapReq accesses
system.cpu1.dcache.SwapReq_mshr_miss_rate::total     0.324910                       # mshr miss rate for SwapReq accesses
system.cpu1.dcache.SwapReq_avg_mshr_miss_latency::.cpu1.data  3992.592593                       # average SwapReq mshr miss latency
system.cpu1.dcache.SwapReq_avg_mshr_miss_latency::total  3992.592593                       # average SwapReq mshr miss latency
system.cpu1.dcache.tags.pwrStateResidencyTicks::UNDEFINED 2004662151500                       # Cumulative time (in ticks) in various power states
system.cpu1.dcache.tags.tagsinuse           31.819896                       # Cycle average of tags in use
system.cpu1.dcache.tags.total_refs          131474255                       # Total number of references to valid blocks.
system.cpu1.dcache.tags.sampled_refs         14474375                       # Sample count of references to valid blocks.
system.cpu1.dcache.tags.avg_refs             9.083242                       # Average number of references to valid blocks.
system.cpu1.dcache.tags.warmup_cycle                0                       # Cycle when the warmup percentage was hit.
system.cpu1.dcache.tags.occ_blocks::.cpu1.data    31.819896                       # Average occupied blocks per requestor
system.cpu1.dcache.tags.occ_percent::.cpu1.data     0.994372                       # Average percentage of cache occupancy
system.cpu1.dcache.tags.occ_percent::total     0.994372                       # Average percentage of cache occupancy
system.cpu1.dcache.tags.occ_task_id_blocks::1024           29                       # Occupied blocks per task id
system.cpu1.dcache.tags.age_task_id_blocks_1024::1           29                       # Occupied blocks per task id
system.cpu1.dcache.tags.occ_task_id_percent::1024     0.906250                       # Percentage of cache occupancy per task id
system.cpu1.dcache.tags.tag_accesses        339016574                       # Number of tag accesses
system.cpu1.dcache.tags.data_accesses       339016574                       # Number of data accesses
system.cpu_clk_domain.clock                       500                       # Clock period in ticks
system.tol2bus.pwrStateResidencyTicks::UNDEFINED 2004662151500                       # Cumulative time (in ticks) in various power states
system.tol2bus.trans_dist::ReadResp          67580345                       # Transaction distribution
system.tol2bus.trans_dist::WritebackDirty     10256310                       # Transaction distribution
system.tol2bus.trans_dist::WritebackClean     62799639                       # Transaction distribution
system.tol2bus.trans_dist::CleanEvict       236138775                       # Transaction distribution
system.tol2bus.trans_dist::HardPFReq        188985098                       # Transaction distribution
system.tol2bus.trans_dist::HardPFResp               5                       # Transaction distribution
system.tol2bus.trans_dist::UpgradeReq            2364                       # Transaction distribution
system.tol2bus.trans_dist::SCUpgradeReq           812                       # Transaction distribution
system.tol2bus.trans_dist::UpgradeResp           3176                       # Transaction distribution
system.tol2bus.trans_dist::SCUpgradeFailReq            1                       # Transaction distribution
system.tol2bus.trans_dist::UpgradeFailResp            1                       # Transaction distribution
system.tol2bus.trans_dist::ReadExReq           451454                       # Transaction distribution
system.tol2bus.trans_dist::ReadExResp          451454                       # Transaction distribution
system.tol2bus.trans_dist::ReadCleanReq         26374                       # Transaction distribution
system.tol2bus.trans_dist::ReadSharedReq     67553972                       # Transaction distribution
system.tol2bus.pkt_count_system.cpu0.icache.mem_side::system.l2.cpu_side        63870                       # Packet count per connected master and slave (bytes)
system.tol2bus.pkt_count_system.cpu0.dcache.mem_side::system.l2.cpu_side    160576892                       # Packet count per connected master and slave (bytes)
system.tol2bus.pkt_count_system.cpu1.icache.mem_side::system.l2.cpu_side        15252                       # Packet count per connected master and slave (bytes)
system.tol2bus.pkt_count_system.cpu1.dcache.mem_side::system.l2.cpu_side     43402036                       # Packet count per connected master and slave (bytes)
system.tol2bus.pkt_count::total             204058050                       # Packet count per connected master and slave (bytes)
system.tol2bus.pkt_size_system.cpu0.icache.mem_side::system.l2.cpu_side      2725120                       # Cumulative packet size per connected master and slave (bytes)
system.tol2bus.pkt_size_system.cpu0.dcache.mem_side::system.l2.cpu_side   6850753920                       # Cumulative packet size per connected master and slave (bytes)
system.tol2bus.pkt_size_system.cpu1.icache.mem_side::system.l2.cpu_side       650752                       # Cumulative packet size per connected master and slave (bytes)
system.tol2bus.pkt_size_system.cpu1.dcache.mem_side::system.l2.cpu_side   1851275968                       # Cumulative packet size per connected master and slave (bytes)
system.tol2bus.pkt_size::total             8705405760                       # Cumulative packet size per connected master and slave (bytes)
system.tol2bus.snoops                       430191735                       # Total snoops (count)
system.tol2bus.snoopTraffic                 324210816                       # Total snoop traffic (bytes)
system.tol2bus.snoop_fanout::samples        498216459                       # Request fanout histogram
system.tol2bus.snoop_fanout::mean            0.129983                       # Request fanout histogram
system.tol2bus.snoop_fanout::stdev           0.337059                       # Request fanout histogram
system.tol2bus.snoop_fanout::underflows             0      0.00%      0.00% # Request fanout histogram
system.tol2bus.snoop_fanout::0              433586426     87.03%     87.03% # Request fanout histogram
system.tol2bus.snoop_fanout::1               64500269     12.95%     99.97% # Request fanout histogram
system.tol2bus.snoop_fanout::2                 129764      0.03%    100.00% # Request fanout histogram
system.tol2bus.snoop_fanout::3                      0      0.00%    100.00% # Request fanout histogram
system.tol2bus.snoop_fanout::4                      0      0.00%    100.00% # Request fanout histogram
system.tol2bus.snoop_fanout::5                      0      0.00%    100.00% # Request fanout histogram
system.tol2bus.snoop_fanout::6                      0      0.00%    100.00% # Request fanout histogram
system.tol2bus.snoop_fanout::7                      0      0.00%    100.00% # Request fanout histogram
system.tol2bus.snoop_fanout::8                      0      0.00%    100.00% # Request fanout histogram
system.tol2bus.snoop_fanout::overflows              0      0.00%    100.00% # Request fanout histogram
system.tol2bus.snoop_fanout::min_value              0                       # Request fanout histogram
system.tol2bus.snoop_fanout::max_value              2                       # Request fanout histogram
system.tol2bus.snoop_fanout::total          498216459                       # Request fanout histogram
system.tol2bus.reqLayer0.occupancy       136122168870                       # Layer occupancy (ticks)
system.tol2bus.reqLayer0.utilization              6.8                       # Layer utilization (%)
system.tol2bus.respLayer1.occupancy       80305090023                       # Layer occupancy (ticks)
system.tol2bus.respLayer1.utilization             4.0                       # Layer utilization (%)
system.tol2bus.respLayer0.occupancy          31954461                       # Layer occupancy (ticks)
system.tol2bus.respLayer0.utilization             0.0                       # Layer utilization (%)
system.tol2bus.respLayer3.occupancy       21718291117                       # Layer occupancy (ticks)
system.tol2bus.respLayer3.utilization             1.1                       # Layer utilization (%)
system.tol2bus.respLayer2.occupancy           7641469                       # Layer occupancy (ticks)
system.tol2bus.respLayer2.utilization             0.0                       # Layer utilization (%)
system.tol2bus.snoopLayer0.occupancy             7502                       # Layer occupancy (ticks)
system.tol2bus.snoopLayer0.utilization            0.0                       # Layer utilization (%)

---------- End Simulation Statistics   ----------
