
---------- Begin Simulation Statistics ----------
final_tick                               582129938000                       # Number of ticks from beginning of simulation (restored from checkpoints and never reset)
host_inst_rate                                  59549                       # Simulator instruction rate (inst/s)
host_mem_usage                                 701368                       # Number of bytes of host memory used
host_op_rate                                    59747                       # Simulator op (including micro ops) rate (op/s)
host_seconds                                 10286.39                       # Real time elapsed on the host
host_tick_rate                               56592225                       # Simulator tick rate (ticks/s)
sim_freq                                 1000000000000                       # Frequency of simulated ticks
sim_insts                                   612545718                       # Number of instructions simulated
sim_ops                                     614583309                       # Number of ops (including micro ops) simulated
sim_seconds                                  0.582130                       # Number of seconds simulated
sim_ticks                                582129938000                       # Number of ticks simulated
system.cpu0.branchPred.BTBCorrect                   0                       # Number of correct BTB predictions (this stat may not work properly.
system.cpu0.branchPred.BTBHitPct            86.984339                       # BTB Hit Percentage
system.cpu0.branchPred.BTBHits               77964722                       # Number of BTB hits
system.cpu0.branchPred.BTBLookups            89630758                       # Number of BTB lookups
system.cpu0.branchPred.RASInCorrect                 0                       # Number of incorrect RAS predictions.
system.cpu0.branchPred.condIncorrect          7056429                       # Number of conditional branches incorrect
system.cpu0.branchPred.condPredicted        120326496                       # Number of conditional branches predicted
system.cpu0.branchPred.indirectHits          10532085                       # Number of indirect target hits.
system.cpu0.branchPred.indirectLookups       10658451                       # Number of indirect predictor lookups.
system.cpu0.branchPred.indirectMisses          126366                       # Number of indirect misses.
system.cpu0.branchPred.lookups              154219854                       # Number of BP lookups
system.cpu0.branchPred.usedRAS                      0                       # Number of times the RAS was used to get a target.
system.cpu0.branchPredindirectMispredicted      1061873                       # Number of mispredicted indirect branches.
system.cpu0.commit.amos                       1018208                       # Number of atomic instructions committed
system.cpu0.commit.branchMispredicts          4945419                       # The number of times a branch was mispredicted
system.cpu0.commit.branches                 143203723                       # Number of branches committed
system.cpu0.commit.bw_lim_events             16407087                       # number cycles where commit BW limit reached
system.cpu0.commit.commitNonSpecStalls        3058507                       # The number of times commit has been forced to stall to communicate backwards
system.cpu0.commit.commitSquashedInsts       38380164                       # The number of squashed insts skipped by commit
system.cpu0.commit.committedInsts           580281589                       # Number of instructions committed
system.cpu0.commit.committedOps             581301081                       # Number of ops (including micro ops) committed
system.cpu0.commit.committed_per_cycle::samples   1066459458                       # Number of insts commited each cycle
system.cpu0.commit.committed_per_cycle::mean     0.545076                       # Number of insts commited each cycle
system.cpu0.commit.committed_per_cycle::stdev     1.307780                       # Number of insts commited each cycle
system.cpu0.commit.committed_per_cycle::underflows            0      0.00%      0.00% # Number of insts commited each cycle
system.cpu0.commit.committed_per_cycle::0    781442291     73.27%     73.27% # Number of insts commited each cycle
system.cpu0.commit.committed_per_cycle::1    173825176     16.30%     89.57% # Number of insts commited each cycle
system.cpu0.commit.committed_per_cycle::2     39868144      3.74%     93.31% # Number of insts commited each cycle
system.cpu0.commit.committed_per_cycle::3     36253718      3.40%     96.71% # Number of insts commited each cycle
system.cpu0.commit.committed_per_cycle::4     11049455      1.04%     97.75% # Number of insts commited each cycle
system.cpu0.commit.committed_per_cycle::5      4169585      0.39%     98.14% # Number of insts commited each cycle
system.cpu0.commit.committed_per_cycle::6      1431992      0.13%     98.27% # Number of insts commited each cycle
system.cpu0.commit.committed_per_cycle::7      2012010      0.19%     98.46% # Number of insts commited each cycle
system.cpu0.commit.committed_per_cycle::8     16407087      1.54%    100.00% # Number of insts commited each cycle
system.cpu0.commit.committed_per_cycle::overflows            0      0.00%    100.00% # Number of insts commited each cycle
system.cpu0.commit.committed_per_cycle::min_value            0                       # Number of insts commited each cycle
system.cpu0.commit.committed_per_cycle::max_value            8                       # Number of insts commited each cycle
system.cpu0.commit.committed_per_cycle::total   1066459458                       # Number of insts commited each cycle
system.cpu0.commit.fp_insts                        46                       # Number of committed floating point instructions.
system.cpu0.commit.function_calls            11887359                       # Number of function calls committed.
system.cpu0.commit.int_insts                561279378                       # Number of committed integer instructions.
system.cpu0.commit.loads                    179950582                       # Number of loads committed
system.cpu0.commit.membars                    2037592                       # Number of memory barriers committed
system.cpu0.commit.op_class_0::No_OpClass      2037598      0.35%      0.35% # Class of committed instruction
system.cpu0.commit.op_class_0::IntAlu       322224467     55.43%     55.78% # Class of committed instruction
system.cpu0.commit.op_class_0::IntMult        4135822      0.71%     56.49% # Class of committed instruction
system.cpu0.commit.op_class_0::IntDiv         1017773      0.18%     56.67% # Class of committed instruction
system.cpu0.commit.op_class_0::FloatAdd             0      0.00%     56.67% # Class of committed instruction
system.cpu0.commit.op_class_0::FloatCmp             4      0.00%     56.67% # Class of committed instruction
system.cpu0.commit.op_class_0::FloatCvt            12      0.00%     56.67% # Class of committed instruction
system.cpu0.commit.op_class_0::FloatMult            0      0.00%     56.67% # Class of committed instruction
system.cpu0.commit.op_class_0::FloatMultAcc            0      0.00%     56.67% # Class of committed instruction
system.cpu0.commit.op_class_0::FloatDiv             2      0.00%     56.67% # Class of committed instruction
system.cpu0.commit.op_class_0::FloatMisc            4      0.00%     56.67% # Class of committed instruction
system.cpu0.commit.op_class_0::FloatSqrt            0      0.00%     56.67% # Class of committed instruction
system.cpu0.commit.op_class_0::SimdAdd              0      0.00%     56.67% # Class of committed instruction
system.cpu0.commit.op_class_0::SimdAddAcc            0      0.00%     56.67% # Class of committed instruction
system.cpu0.commit.op_class_0::SimdAlu              0      0.00%     56.67% # Class of committed instruction
system.cpu0.commit.op_class_0::SimdCmp              0      0.00%     56.67% # Class of committed instruction
system.cpu0.commit.op_class_0::SimdCvt              0      0.00%     56.67% # Class of committed instruction
system.cpu0.commit.op_class_0::SimdMisc             0      0.00%     56.67% # Class of committed instruction
system.cpu0.commit.op_class_0::SimdMult             0      0.00%     56.67% # Class of committed instruction
system.cpu0.commit.op_class_0::SimdMultAcc            0      0.00%     56.67% # Class of committed instruction
system.cpu0.commit.op_class_0::SimdShift            0      0.00%     56.67% # Class of committed instruction
system.cpu0.commit.op_class_0::SimdShiftAcc            0      0.00%     56.67% # Class of committed instruction
system.cpu0.commit.op_class_0::SimdDiv              0      0.00%     56.67% # Class of committed instruction
system.cpu0.commit.op_class_0::SimdSqrt             0      0.00%     56.67% # Class of committed instruction
system.cpu0.commit.op_class_0::SimdFloatAdd            0      0.00%     56.67% # Class of committed instruction
system.cpu0.commit.op_class_0::SimdFloatAlu            0      0.00%     56.67% # Class of committed instruction
system.cpu0.commit.op_class_0::SimdFloatCmp            0      0.00%     56.67% # Class of committed instruction
system.cpu0.commit.op_class_0::SimdFloatCvt            0      0.00%     56.67% # Class of committed instruction
system.cpu0.commit.op_class_0::SimdFloatDiv            0      0.00%     56.67% # Class of committed instruction
system.cpu0.commit.op_class_0::SimdFloatMisc            0      0.00%     56.67% # Class of committed instruction
system.cpu0.commit.op_class_0::SimdFloatMult            0      0.00%     56.67% # Class of committed instruction
system.cpu0.commit.op_class_0::SimdFloatMultAcc            0      0.00%     56.67% # Class of committed instruction
system.cpu0.commit.op_class_0::SimdFloatSqrt            0      0.00%     56.67% # Class of committed instruction
system.cpu0.commit.op_class_0::SimdReduceAdd            0      0.00%     56.67% # Class of committed instruction
system.cpu0.commit.op_class_0::SimdReduceAlu            0      0.00%     56.67% # Class of committed instruction
system.cpu0.commit.op_class_0::SimdReduceCmp            0      0.00%     56.67% # Class of committed instruction
system.cpu0.commit.op_class_0::SimdFloatReduceAdd            0      0.00%     56.67% # Class of committed instruction
system.cpu0.commit.op_class_0::SimdFloatReduceCmp            0      0.00%     56.67% # Class of committed instruction
system.cpu0.commit.op_class_0::SimdAes              0      0.00%     56.67% # Class of committed instruction
system.cpu0.commit.op_class_0::SimdAesMix            0      0.00%     56.67% # Class of committed instruction
system.cpu0.commit.op_class_0::SimdSha1Hash            0      0.00%     56.67% # Class of committed instruction
system.cpu0.commit.op_class_0::SimdSha1Hash2            0      0.00%     56.67% # Class of committed instruction
system.cpu0.commit.op_class_0::SimdSha256Hash            0      0.00%     56.67% # Class of committed instruction
system.cpu0.commit.op_class_0::SimdSha256Hash2            0      0.00%     56.67% # Class of committed instruction
system.cpu0.commit.op_class_0::SimdShaSigma2            0      0.00%     56.67% # Class of committed instruction
system.cpu0.commit.op_class_0::SimdShaSigma3            0      0.00%     56.67% # Class of committed instruction
system.cpu0.commit.op_class_0::SimdPredAlu            0      0.00%     56.67% # Class of committed instruction
system.cpu0.commit.op_class_0::MemRead      180968782     31.13%     87.80% # Class of committed instruction
system.cpu0.commit.op_class_0::MemWrite      70916593     12.20%    100.00% # Class of committed instruction
system.cpu0.commit.op_class_0::FloatMemRead            8      0.00%    100.00% # Class of committed instruction
system.cpu0.commit.op_class_0::FloatMemWrite           16      0.00%    100.00% # Class of committed instruction
system.cpu0.commit.op_class_0::IprAccess            0      0.00%    100.00% # Class of committed instruction
system.cpu0.commit.op_class_0::InstPrefetch            0      0.00%    100.00% # Class of committed instruction
system.cpu0.commit.op_class_0::total        581301081                       # Class of committed instruction
system.cpu0.commit.refs                     251885399                       # Number of memory references committed
system.cpu0.commit.swp_count                        0                       # Number of s/w prefetches committed
system.cpu0.commit.vec_insts                        0                       # Number of committed Vector instructions.
system.cpu0.committedInsts                  580281589                       # Number of Instructions Simulated
system.cpu0.committedOps                    581301081                       # Number of Ops (including micro ops) Simulated
system.cpu0.cpi                              1.987141                       # CPI: Cycles Per Instruction
system.cpu0.cpi_total                        1.987141                       # CPI: Total CPI of All Threads
system.cpu0.decode.BlockedCycles            181728944                       # Number of cycles decode is blocked
system.cpu0.decode.BranchMispred              2124766                       # Number of times decode detected a branch misprediction
system.cpu0.decode.BranchResolved            77255154                       # Number of times decode resolved a branch
system.cpu0.decode.DecodedInsts             632184958                       # Number of instructions handled by decode
system.cpu0.decode.IdleCycles               446965674                       # Number of cycles decode is idle
system.cpu0.decode.RunCycles                437503379                       # Number of cycles decode is running
system.cpu0.decode.SquashCycles               4951842                       # Number of cycles decode is squashing
system.cpu0.decode.SquashedInsts              4282189                       # Number of squashed instructions handled by decode
system.cpu0.decode.UnblockCycles              3095907                       # Number of cycles decode is unblocking
system.cpu0.dtb.accesses                            0                       # DTB accesses
system.cpu0.dtb.hits                                0                       # DTB hits
system.cpu0.dtb.misses                              0                       # DTB misses
system.cpu0.dtb.read_accesses                       0                       # DTB read accesses
system.cpu0.dtb.read_hits                           0                       # DTB read hits
system.cpu0.dtb.read_misses                         0                       # DTB read misses
system.cpu0.dtb.write_accesses                      0                       # DTB write accesses
system.cpu0.dtb.write_hits                          0                       # DTB write hits
system.cpu0.dtb.write_misses                        0                       # DTB write misses
system.cpu0.fetch.Branches                  154219854                       # Number of branches that fetch encountered
system.cpu0.fetch.CacheLines                109268676                       # Number of cache lines fetched
system.cpu0.fetch.Cycles                    625451352                       # Number of cycles fetch has run and was not squashing or blocked
system.cpu0.fetch.IcacheSquashes              2994723                       # Number of outstanding Icache misses that were squashed
system.cpu0.fetch.IcacheWaitRetryStallCycles          175                       # Number of stall cycles due to full MSHR
system.cpu0.fetch.Insts                     641038499                       # Number of instructions fetch has processed
system.cpu0.fetch.MiscStallCycles                 207                       # Number of cycles fetch has spent waiting on interrupts, or bad addresses, or out of MSHRs
system.cpu0.fetch.PendingTrapStallCycles           42                       # Number of stall cycles due to pending traps
system.cpu0.fetch.SquashCycles               14125716                       # Number of cycles fetch has spent squashing
system.cpu0.fetch.branchRate                 0.133744                       # Number of branch fetches per cycle
system.cpu0.fetch.icacheStallCycles         441731112                       # Number of cycles fetch is stalled on an Icache miss
system.cpu0.fetch.predictedBranches          88496807                       # Number of branches that fetch has predicted taken
system.cpu0.fetch.rate                       0.555926                       # Number of inst fetches per cycle
system.cpu0.fetch.rateDist::samples        1074245746                       # Number of instructions fetched each cycle (Total)
system.cpu0.fetch.rateDist::mean             0.597683                       # Number of instructions fetched each cycle (Total)
system.cpu0.fetch.rateDist::stdev            0.883443                       # Number of instructions fetched each cycle (Total)
system.cpu0.fetch.rateDist::underflows              0      0.00%      0.00% # Number of instructions fetched each cycle (Total)
system.cpu0.fetch.rateDist::0               617161830     57.45%     57.45% # Number of instructions fetched each cycle (Total)
system.cpu0.fetch.rateDist::1               338601049     31.52%     88.97% # Number of instructions fetched each cycle (Total)
system.cpu0.fetch.rateDist::2                71286802      6.64%     95.61% # Number of instructions fetched each cycle (Total)
system.cpu0.fetch.rateDist::3                37934579      3.53%     99.14% # Number of instructions fetched each cycle (Total)
system.cpu0.fetch.rateDist::4                 4395539      0.41%     99.55% # Number of instructions fetched each cycle (Total)
system.cpu0.fetch.rateDist::5                 2764452      0.26%     99.80% # Number of instructions fetched each cycle (Total)
system.cpu0.fetch.rateDist::6                   57289      0.01%     99.81% # Number of instructions fetched each cycle (Total)
system.cpu0.fetch.rateDist::7                 1021677      0.10%     99.90% # Number of instructions fetched each cycle (Total)
system.cpu0.fetch.rateDist::8                 1022529      0.10%    100.00% # Number of instructions fetched each cycle (Total)
system.cpu0.fetch.rateDist::overflows               0      0.00%    100.00% # Number of instructions fetched each cycle (Total)
system.cpu0.fetch.rateDist::min_value               0                       # Number of instructions fetched each cycle (Total)
system.cpu0.fetch.rateDist::max_value               8                       # Number of instructions fetched each cycle (Total)
system.cpu0.fetch.rateDist::total          1074245746                       # Number of instructions fetched each cycle (Total)
system.cpu0.fp_regfile_reads                       40                       # number of floating regfile reads
system.cpu0.fp_regfile_writes                      22                       # number of floating regfile writes
system.cpu0.idleCycles                       78855374                       # Total number of cycles that the CPU has spent unscheduled due to idling
system.cpu0.iew.branchMispredicts             5018352                       # Number of branch mispredicts detected at execute
system.cpu0.iew.exec_branches               147088796                       # Number of branches executed
system.cpu0.iew.exec_nop                            0                       # number of nop insts executed
system.cpu0.iew.exec_rate                    0.529650                       # Inst execution rate
system.cpu0.iew.exec_refs                   268709434                       # number of memory reference insts executed
system.cpu0.iew.exec_stores                  74936006                       # Number of stores executed
system.cpu0.iew.exec_swp                            0                       # number of swp insts executed
system.cpu0.iew.iewBlockCycles              150188150                       # Number of cycles IEW is blocking
system.cpu0.iew.iewDispLoadInsts            194608393                       # Number of dispatched load instructions
system.cpu0.iew.iewDispNonSpecInsts           1021090                       # Number of dispatched non-speculative instructions
system.cpu0.iew.iewDispSquashedInsts          2408283                       # Number of squashed instructions skipped by dispatch
system.cpu0.iew.iewDispStoreInsts            76617990                       # Number of dispatched store instructions
system.cpu0.iew.iewDispatchedInsts          619660959                       # Number of instructions dispatched to IQ
system.cpu0.iew.iewExecLoadInsts            193773428                       # Number of load instructions executed
system.cpu0.iew.iewExecSquashedInsts          5167801                       # Number of squashed instructions skipped in execute
system.cpu0.iew.iewExecutedInsts            610739540                       # Number of executed instructions
system.cpu0.iew.iewIQFullEvents                707033                       # Number of times the IQ has become full, causing a stall
system.cpu0.iew.iewIdleCycles                       0                       # Number of cycles IEW is idle
system.cpu0.iew.iewLSQFullEvents              2931973                       # Number of times the LSQ has become full, causing a stall
system.cpu0.iew.iewSquashCycles               4951842                       # Number of cycles IEW is squashing
system.cpu0.iew.iewUnblockCycles              4920666                       # Number of cycles IEW is unblocking
system.cpu0.iew.lsq.thread0.blockedLoads            0                       # Number of blocked loads due to partial load-store forwarding
system.cpu0.iew.lsq.thread0.cacheBlocked        85827                       # Number of times an access to memory failed due to the cache being blocked
system.cpu0.iew.lsq.thread0.forwLoads         8504103                       # Number of loads that had data forwarded from stores
system.cpu0.iew.lsq.thread0.ignoredResponses        31903                       # Number of memory responses ignored because the instruction is squashed
system.cpu0.iew.lsq.thread0.invAddrLoads            0                       # Number of loads ignored due to an invalid address
system.cpu0.iew.lsq.thread0.invAddrSwpfs            0                       # Number of software prefetches ignored due to an invalid address
system.cpu0.iew.lsq.thread0.memOrderViolation         7664                       # Number of memory ordering violations
system.cpu0.iew.lsq.thread0.rescheduledLoads      2402492                       # Number of loads that were rescheduled
system.cpu0.iew.lsq.thread0.squashedLoads     14657811                       # Number of loads squashed
system.cpu0.iew.lsq.thread0.squashedStores      4683173                       # Number of stores squashed
system.cpu0.iew.memOrderViolationEvents          7664                       # Number of memory order violations
system.cpu0.iew.predictedNotTakenIncorrect       852889                       # Number of branches that were predicted not taken incorrectly
system.cpu0.iew.predictedTakenIncorrect       4165463                       # Number of branches that were predicted taken incorrectly
system.cpu0.iew.wb_consumers                251503708                       # num instructions consuming a value
system.cpu0.iew.wb_count                    604716137                       # cumulative count of insts written-back
system.cpu0.iew.wb_fanout                    0.885327                       # average fanout of values written-back
system.cpu0.iew.wb_producers                222662902                       # num instructions producing a value
system.cpu0.iew.wb_rate                      0.524426                       # insts written-back per cycle
system.cpu0.iew.wb_sent                     604770555                       # cumulative count of insts sent to commit
system.cpu0.int_regfile_reads               744781218                       # number of integer regfile reads
system.cpu0.int_regfile_writes              387325749                       # number of integer regfile writes
system.cpu0.ipc                              0.503236                       # IPC: Instructions Per Cycle
system.cpu0.ipc_total                        0.503236                       # IPC: Total IPC of All Threads
system.cpu0.iq.FU_type_0::No_OpClass          2038464      0.33%      0.33% # Type of FU issued
system.cpu0.iq.FU_type_0::IntAlu            337219911     54.75%     55.08% # Type of FU issued
system.cpu0.iq.FU_type_0::IntMult             4138549      0.67%     55.75% # Type of FU issued
system.cpu0.iq.FU_type_0::IntDiv              1018055      0.17%     55.92% # Type of FU issued
system.cpu0.iq.FU_type_0::FloatAdd                  0      0.00%     55.92% # Type of FU issued
system.cpu0.iq.FU_type_0::FloatCmp                  4      0.00%     55.92% # Type of FU issued
system.cpu0.iq.FU_type_0::FloatCvt                 12      0.00%     55.92% # Type of FU issued
system.cpu0.iq.FU_type_0::FloatMult                 0      0.00%     55.92% # Type of FU issued
system.cpu0.iq.FU_type_0::FloatMultAcc              0      0.00%     55.92% # Type of FU issued
system.cpu0.iq.FU_type_0::FloatDiv                  2      0.00%     55.92% # Type of FU issued
system.cpu0.iq.FU_type_0::FloatMisc                 4      0.00%     55.92% # Type of FU issued
system.cpu0.iq.FU_type_0::FloatSqrt                 0      0.00%     55.92% # Type of FU issued
system.cpu0.iq.FU_type_0::SimdAdd                   0      0.00%     55.92% # Type of FU issued
system.cpu0.iq.FU_type_0::SimdAddAcc                0      0.00%     55.92% # Type of FU issued
system.cpu0.iq.FU_type_0::SimdAlu                   0      0.00%     55.92% # Type of FU issued
system.cpu0.iq.FU_type_0::SimdCmp                   0      0.00%     55.92% # Type of FU issued
system.cpu0.iq.FU_type_0::SimdCvt                   0      0.00%     55.92% # Type of FU issued
system.cpu0.iq.FU_type_0::SimdMisc                  0      0.00%     55.92% # Type of FU issued
system.cpu0.iq.FU_type_0::SimdMult                  0      0.00%     55.92% # Type of FU issued
system.cpu0.iq.FU_type_0::SimdMultAcc               0      0.00%     55.92% # Type of FU issued
system.cpu0.iq.FU_type_0::SimdShift                 0      0.00%     55.92% # Type of FU issued
system.cpu0.iq.FU_type_0::SimdShiftAcc              0      0.00%     55.92% # Type of FU issued
system.cpu0.iq.FU_type_0::SimdDiv                   0      0.00%     55.92% # Type of FU issued
system.cpu0.iq.FU_type_0::SimdSqrt                  0      0.00%     55.92% # Type of FU issued
system.cpu0.iq.FU_type_0::SimdFloatAdd              0      0.00%     55.92% # Type of FU issued
system.cpu0.iq.FU_type_0::SimdFloatAlu              0      0.00%     55.92% # Type of FU issued
system.cpu0.iq.FU_type_0::SimdFloatCmp              0      0.00%     55.92% # Type of FU issued
system.cpu0.iq.FU_type_0::SimdFloatCvt              0      0.00%     55.92% # Type of FU issued
system.cpu0.iq.FU_type_0::SimdFloatDiv              0      0.00%     55.92% # Type of FU issued
system.cpu0.iq.FU_type_0::SimdFloatMisc             0      0.00%     55.92% # Type of FU issued
system.cpu0.iq.FU_type_0::SimdFloatMult             0      0.00%     55.92% # Type of FU issued
system.cpu0.iq.FU_type_0::SimdFloatMultAcc            0      0.00%     55.92% # Type of FU issued
system.cpu0.iq.FU_type_0::SimdFloatSqrt             0      0.00%     55.92% # Type of FU issued
system.cpu0.iq.FU_type_0::SimdReduceAdd             0      0.00%     55.92% # Type of FU issued
system.cpu0.iq.FU_type_0::SimdReduceAlu             0      0.00%     55.92% # Type of FU issued
system.cpu0.iq.FU_type_0::SimdReduceCmp             0      0.00%     55.92% # Type of FU issued
system.cpu0.iq.FU_type_0::SimdFloatReduceAdd            0      0.00%     55.92% # Type of FU issued
system.cpu0.iq.FU_type_0::SimdFloatReduceCmp            0      0.00%     55.92% # Type of FU issued
system.cpu0.iq.FU_type_0::SimdAes                   0      0.00%     55.92% # Type of FU issued
system.cpu0.iq.FU_type_0::SimdAesMix                0      0.00%     55.92% # Type of FU issued
system.cpu0.iq.FU_type_0::SimdSha1Hash              0      0.00%     55.92% # Type of FU issued
system.cpu0.iq.FU_type_0::SimdSha1Hash2             0      0.00%     55.92% # Type of FU issued
system.cpu0.iq.FU_type_0::SimdSha256Hash            0      0.00%     55.92% # Type of FU issued
system.cpu0.iq.FU_type_0::SimdSha256Hash2            0      0.00%     55.92% # Type of FU issued
system.cpu0.iq.FU_type_0::SimdShaSigma2             0      0.00%     55.92% # Type of FU issued
system.cpu0.iq.FU_type_0::SimdShaSigma3             0      0.00%     55.92% # Type of FU issued
system.cpu0.iq.FU_type_0::SimdPredAlu               0      0.00%     55.92% # Type of FU issued
system.cpu0.iq.FU_type_0::MemRead           196600063     31.92%     87.84% # Type of FU issued
system.cpu0.iq.FU_type_0::MemWrite           74892254     12.16%    100.00% # Type of FU issued
system.cpu0.iq.FU_type_0::FloatMemRead              8      0.00%    100.00% # Type of FU issued
system.cpu0.iq.FU_type_0::FloatMemWrite            16      0.00%    100.00% # Type of FU issued
system.cpu0.iq.FU_type_0::IprAccess                 0      0.00%    100.00% # Type of FU issued
system.cpu0.iq.FU_type_0::InstPrefetch              0      0.00%    100.00% # Type of FU issued
system.cpu0.iq.FU_type_0::total             615907342                       # Type of FU issued
system.cpu0.iq.fp_alu_accesses                     48                       # Number of floating point alu accesses
system.cpu0.iq.fp_inst_queue_reads                 94                       # Number of floating instruction queue reads
system.cpu0.iq.fp_inst_queue_wakeup_accesses           46                       # Number of floating instruction queue wakeup accesses
system.cpu0.iq.fp_inst_queue_writes                46                       # Number of floating instruction queue writes
system.cpu0.iq.fu_busy_cnt                    1248482                       # FU busy when requested
system.cpu0.iq.fu_busy_rate                  0.002027                       # FU busy rate (busy events/executed inst)
system.cpu0.iq.fu_full::No_OpClass                  0      0.00%      0.00% # attempts to use FU when none available
system.cpu0.iq.fu_full::IntAlu                 235685     18.88%     18.88% # attempts to use FU when none available
system.cpu0.iq.fu_full::IntMult                     0      0.00%     18.88% # attempts to use FU when none available
system.cpu0.iq.fu_full::IntDiv                      0      0.00%     18.88% # attempts to use FU when none available
system.cpu0.iq.fu_full::FloatAdd                    0      0.00%     18.88% # attempts to use FU when none available
system.cpu0.iq.fu_full::FloatCmp                    0      0.00%     18.88% # attempts to use FU when none available
system.cpu0.iq.fu_full::FloatCvt                    0      0.00%     18.88% # attempts to use FU when none available
system.cpu0.iq.fu_full::FloatMult                   0      0.00%     18.88% # attempts to use FU when none available
system.cpu0.iq.fu_full::FloatMultAcc                0      0.00%     18.88% # attempts to use FU when none available
system.cpu0.iq.fu_full::FloatDiv                    0      0.00%     18.88% # attempts to use FU when none available
system.cpu0.iq.fu_full::FloatMisc                   0      0.00%     18.88% # attempts to use FU when none available
system.cpu0.iq.fu_full::FloatSqrt                   0      0.00%     18.88% # attempts to use FU when none available
system.cpu0.iq.fu_full::SimdAdd                     0      0.00%     18.88% # attempts to use FU when none available
system.cpu0.iq.fu_full::SimdAddAcc                  0      0.00%     18.88% # attempts to use FU when none available
system.cpu0.iq.fu_full::SimdAlu                     0      0.00%     18.88% # attempts to use FU when none available
system.cpu0.iq.fu_full::SimdCmp                     0      0.00%     18.88% # attempts to use FU when none available
system.cpu0.iq.fu_full::SimdCvt                     0      0.00%     18.88% # attempts to use FU when none available
system.cpu0.iq.fu_full::SimdMisc                    0      0.00%     18.88% # attempts to use FU when none available
system.cpu0.iq.fu_full::SimdMult                    0      0.00%     18.88% # attempts to use FU when none available
system.cpu0.iq.fu_full::SimdMultAcc                 0      0.00%     18.88% # attempts to use FU when none available
system.cpu0.iq.fu_full::SimdShift                   0      0.00%     18.88% # attempts to use FU when none available
system.cpu0.iq.fu_full::SimdShiftAcc                0      0.00%     18.88% # attempts to use FU when none available
system.cpu0.iq.fu_full::SimdDiv                     0      0.00%     18.88% # attempts to use FU when none available
system.cpu0.iq.fu_full::SimdSqrt                    0      0.00%     18.88% # attempts to use FU when none available
system.cpu0.iq.fu_full::SimdFloatAdd                0      0.00%     18.88% # attempts to use FU when none available
system.cpu0.iq.fu_full::SimdFloatAlu                0      0.00%     18.88% # attempts to use FU when none available
system.cpu0.iq.fu_full::SimdFloatCmp                0      0.00%     18.88% # attempts to use FU when none available
system.cpu0.iq.fu_full::SimdFloatCvt                0      0.00%     18.88% # attempts to use FU when none available
system.cpu0.iq.fu_full::SimdFloatDiv                0      0.00%     18.88% # attempts to use FU when none available
system.cpu0.iq.fu_full::SimdFloatMisc               0      0.00%     18.88% # attempts to use FU when none available
system.cpu0.iq.fu_full::SimdFloatMult               0      0.00%     18.88% # attempts to use FU when none available
system.cpu0.iq.fu_full::SimdFloatMultAcc            0      0.00%     18.88% # attempts to use FU when none available
system.cpu0.iq.fu_full::SimdFloatSqrt               0      0.00%     18.88% # attempts to use FU when none available
system.cpu0.iq.fu_full::SimdReduceAdd               0      0.00%     18.88% # attempts to use FU when none available
system.cpu0.iq.fu_full::SimdReduceAlu               0      0.00%     18.88% # attempts to use FU when none available
system.cpu0.iq.fu_full::SimdReduceCmp               0      0.00%     18.88% # attempts to use FU when none available
system.cpu0.iq.fu_full::SimdFloatReduceAdd            0      0.00%     18.88% # attempts to use FU when none available
system.cpu0.iq.fu_full::SimdFloatReduceCmp            0      0.00%     18.88% # attempts to use FU when none available
system.cpu0.iq.fu_full::SimdAes                     0      0.00%     18.88% # attempts to use FU when none available
system.cpu0.iq.fu_full::SimdAesMix                  0      0.00%     18.88% # attempts to use FU when none available
system.cpu0.iq.fu_full::SimdSha1Hash                0      0.00%     18.88% # attempts to use FU when none available
system.cpu0.iq.fu_full::SimdSha1Hash2               0      0.00%     18.88% # attempts to use FU when none available
system.cpu0.iq.fu_full::SimdSha256Hash              0      0.00%     18.88% # attempts to use FU when none available
system.cpu0.iq.fu_full::SimdSha256Hash2             0      0.00%     18.88% # attempts to use FU when none available
system.cpu0.iq.fu_full::SimdShaSigma2               0      0.00%     18.88% # attempts to use FU when none available
system.cpu0.iq.fu_full::SimdShaSigma3               0      0.00%     18.88% # attempts to use FU when none available
system.cpu0.iq.fu_full::SimdPredAlu                 0      0.00%     18.88% # attempts to use FU when none available
system.cpu0.iq.fu_full::MemRead                924518     74.05%     92.93% # attempts to use FU when none available
system.cpu0.iq.fu_full::MemWrite                88277      7.07%    100.00% # attempts to use FU when none available
system.cpu0.iq.fu_full::FloatMemRead                0      0.00%    100.00% # attempts to use FU when none available
system.cpu0.iq.fu_full::FloatMemWrite               2      0.00%    100.00% # attempts to use FU when none available
system.cpu0.iq.fu_full::IprAccess                   0      0.00%    100.00% # attempts to use FU when none available
system.cpu0.iq.fu_full::InstPrefetch                0      0.00%    100.00% # attempts to use FU when none available
system.cpu0.iq.int_alu_accesses             615117312                       # Number of integer alu accesses
system.cpu0.iq.int_inst_queue_reads        2307393673                       # Number of integer instruction queue reads
system.cpu0.iq.int_inst_queue_wakeup_accesses    604716091                       # Number of integer instruction queue wakeup accesses
system.cpu0.iq.int_inst_queue_writes        658027589                       # Number of integer instruction queue writes
system.cpu0.iq.iqInstsAdded                 616602096                       # Number of instructions added to the IQ (excludes non-spec)
system.cpu0.iq.iqInstsIssued                615907342                       # Number of instructions issued
system.cpu0.iq.iqNonSpecInstsAdded            3058863                       # Number of non-speculative instructions added to the IQ
system.cpu0.iq.iqSquashedInstsExamined       38359874                       # Number of squashed instructions iterated over during squash; mainly for profiling
system.cpu0.iq.iqSquashedInstsIssued            84856                       # Number of squashed instructions issued
system.cpu0.iq.iqSquashedNonSpecRemoved           356                       # Number of squashed non-spec instructions that were removed
system.cpu0.iq.iqSquashedOperandsExamined     16398783                       # Number of squashed operands that are examined and possibly removed from graph
system.cpu0.iq.issued_per_cycle::samples   1074245746                       # Number of insts issued each cycle
system.cpu0.iq.issued_per_cycle::mean        0.573339                       # Number of insts issued each cycle
system.cpu0.iq.issued_per_cycle::stdev       0.801316                       # Number of insts issued each cycle
system.cpu0.iq.issued_per_cycle::underflows            0      0.00%      0.00% # Number of insts issued each cycle
system.cpu0.iq.issued_per_cycle::0          626421481     58.31%     58.31% # Number of insts issued each cycle
system.cpu0.iq.issued_per_cycle::1          312224900     29.06%     87.38% # Number of insts issued each cycle
system.cpu0.iq.issued_per_cycle::2          111743626     10.40%     97.78% # Number of insts issued each cycle
system.cpu0.iq.issued_per_cycle::3           18198272      1.69%     99.47% # Number of insts issued each cycle
system.cpu0.iq.issued_per_cycle::4            3659477      0.34%     99.81% # Number of insts issued each cycle
system.cpu0.iq.issued_per_cycle::5            1310047      0.12%     99.94% # Number of insts issued each cycle
system.cpu0.iq.issued_per_cycle::6             479586      0.04%     99.98% # Number of insts issued each cycle
system.cpu0.iq.issued_per_cycle::7             132141      0.01%     99.99% # Number of insts issued each cycle
system.cpu0.iq.issued_per_cycle::8              76216      0.01%    100.00% # Number of insts issued each cycle
system.cpu0.iq.issued_per_cycle::overflows            0      0.00%    100.00% # Number of insts issued each cycle
system.cpu0.iq.issued_per_cycle::min_value            0                       # Number of insts issued each cycle
system.cpu0.iq.issued_per_cycle::max_value            8                       # Number of insts issued each cycle
system.cpu0.iq.issued_per_cycle::total     1074245746                       # Number of insts issued each cycle
system.cpu0.iq.rate                          0.534131                       # Inst issue rate
system.cpu0.iq.vec_alu_accesses                     0                       # Number of vector alu accesses
system.cpu0.iq.vec_inst_queue_reads                 0                       # Number of vector instruction queue reads
system.cpu0.iq.vec_inst_queue_wakeup_accesses            0                       # Number of vector instruction queue wakeup accesses
system.cpu0.iq.vec_inst_queue_writes                0                       # Number of vector instruction queue writes
system.cpu0.itb.accesses                            0                       # DTB accesses
system.cpu0.itb.hits                                0                       # DTB hits
system.cpu0.itb.misses                              0                       # DTB misses
system.cpu0.itb.read_accesses                       0                       # DTB read accesses
system.cpu0.itb.read_hits                           0                       # DTB read hits
system.cpu0.itb.read_misses                         0                       # DTB read misses
system.cpu0.itb.write_accesses                      0                       # DTB write accesses
system.cpu0.itb.write_hits                          0                       # DTB write hits
system.cpu0.itb.write_misses                        0                       # DTB write misses
system.cpu0.memDep0.conflictingLoads         10079713                       # Number of conflicting loads.
system.cpu0.memDep0.conflictingStores         1928437                       # Number of conflicting stores.
system.cpu0.memDep0.insertedLoads           194608393                       # Number of loads inserted to the mem dependence unit.
system.cpu0.memDep0.insertedStores           76617990                       # Number of stores inserted to the mem dependence unit.
system.cpu0.misc_regfile_reads                    886                       # number of misc regfile reads
system.cpu0.misc_regfile_writes                    22                       # number of misc regfile writes
system.cpu0.numCycles                      1153101120                       # number of cpu cycles simulated
system.cpu0.numWorkItemsCompleted                   0                       # number of work items this cpu completed
system.cpu0.numWorkItemsStarted                     0                       # number of work items this cpu started
system.cpu0.quiesceCycles                    11159123                       # Total number of cycles that CPU has spent quiesced or waiting for an interrupt
system.cpu0.rename.BlockCycles              162437787                       # Number of cycles rename is blocking
system.cpu0.rename.CommittedMaps            370565303                       # Number of HB maps that are committed
system.cpu0.rename.IQFullEvents               7018062                       # Number of times rename has blocked due to IQ full
system.cpu0.rename.IdleCycles               452993246                       # Number of cycles rename is idle
system.cpu0.rename.LQFullEvents               5292388                       # Number of times rename has blocked due to LQ full
system.cpu0.rename.ROBFullEvents                12950                       # Number of times rename has blocked due to ROB full
system.cpu0.rename.RenameLookups            766328297                       # Number of register rename lookups that rename has made
system.cpu0.rename.RenamedInsts             627192895                       # Number of instructions processed by rename
system.cpu0.rename.RenamedOperands          402522549                       # Number of destination operands rename has renamed
system.cpu0.rename.RunCycles                433840301                       # Number of cycles rename is running
system.cpu0.rename.SQFullEvents               7300290                       # Number of times rename has blocked due to SQ full
system.cpu0.rename.SquashCycles               4951842                       # Number of cycles rename is squashing
system.cpu0.rename.UnblockCycles             19929591                       # Number of cycles rename is unblocking
system.cpu0.rename.UndoneMaps                31957238                       # Number of HB maps that are undone due to squashing
system.cpu0.rename.fp_rename_lookups               40                       # Number of floating rename lookups
system.cpu0.rename.int_rename_lookups       766328257                       # Number of integer rename lookups
system.cpu0.rename.serializeStallCycles         92979                       # count of cycles rename stalled for serializing inst
system.cpu0.rename.serializingInsts              2835                       # count of serializing insts renamed
system.cpu0.rename.skidInsts                 14894965                       # count of insts added to the skid buffer
system.cpu0.rename.tempSerializingInsts          2829                       # count of temporary serializing insts renamed
system.cpu0.rob.rob_reads                  1669722605                       # The number of ROB reads
system.cpu0.rob.rob_writes                 1247158763                       # The number of ROB writes
system.cpu0.timesIdled                       14478879                       # Number of times that the entire CPU went into an idle state and unscheduled itself
system.cpu0.workload.numSyscalls                  853                       # Number of system calls
system.cpu1.branchPred.BTBCorrect                   0                       # Number of correct BTB predictions (this stat may not work properly.
system.cpu1.branchPred.BTBHitPct            75.521580                       # BTB Hit Percentage
system.cpu1.branchPred.BTBHits                4991191                       # Number of BTB hits
system.cpu1.branchPred.BTBLookups             6608960                       # Number of BTB lookups
system.cpu1.branchPred.RASInCorrect                 0                       # Number of incorrect RAS predictions.
system.cpu1.branchPred.condIncorrect           947477                       # Number of conditional branches incorrect
system.cpu1.branchPred.condPredicted          9027192                       # Number of conditional branches predicted
system.cpu1.branchPred.indirectHits            214791                       # Number of indirect target hits.
system.cpu1.branchPred.indirectLookups         372217                       # Number of indirect predictor lookups.
system.cpu1.branchPred.indirectMisses          157426                       # Number of indirect misses.
system.cpu1.branchPred.lookups               10002900                       # Number of BP lookups
system.cpu1.branchPred.usedRAS                      0                       # Number of times the RAS was used to get a target.
system.cpu1.branchPredindirectMispredicted         3188                       # Number of mispredicted indirect branches.
system.cpu1.commit.amos                       1017925                       # Number of atomic instructions committed
system.cpu1.commit.branchMispredicts           570345                       # The number of times a branch was mispredicted
system.cpu1.commit.branches                   7095668                       # Number of branches committed
system.cpu1.commit.bw_lim_events               778425                       # number cycles where commit BW limit reached
system.cpu1.commit.commitNonSpecStalls        3054436                       # The number of times commit has been forced to stall to communicate backwards
system.cpu1.commit.commitSquashedInsts        7444721                       # The number of squashed insts skipped by commit
system.cpu1.commit.committedInsts            32264129                       # Number of instructions committed
system.cpu1.commit.committedOps              33282228                       # Number of ops (including micro ops) committed
system.cpu1.commit.committed_per_cycle::samples    191663827                       # Number of insts commited each cycle
system.cpu1.commit.committed_per_cycle::mean     0.173649                       # Number of insts commited each cycle
system.cpu1.commit.committed_per_cycle::stdev     0.822511                       # Number of insts commited each cycle
system.cpu1.commit.committed_per_cycle::underflows            0      0.00%      0.00% # Number of insts commited each cycle
system.cpu1.commit.committed_per_cycle::0    177792331     92.76%     92.76% # Number of insts commited each cycle
system.cpu1.commit.committed_per_cycle::1      6945922      3.62%     96.39% # Number of insts commited each cycle
system.cpu1.commit.committed_per_cycle::2      2344629      1.22%     97.61% # Number of insts commited each cycle
system.cpu1.commit.committed_per_cycle::3      2093274      1.09%     98.70% # Number of insts commited each cycle
system.cpu1.commit.committed_per_cycle::4       521260      0.27%     98.97% # Number of insts commited each cycle
system.cpu1.commit.committed_per_cycle::5       152242      0.08%     99.05% # Number of insts commited each cycle
system.cpu1.commit.committed_per_cycle::6       956632      0.50%     99.55% # Number of insts commited each cycle
system.cpu1.commit.committed_per_cycle::7        79112      0.04%     99.59% # Number of insts commited each cycle
system.cpu1.commit.committed_per_cycle::8       778425      0.41%    100.00% # Number of insts commited each cycle
system.cpu1.commit.committed_per_cycle::overflows            0      0.00%    100.00% # Number of insts commited each cycle
system.cpu1.commit.committed_per_cycle::min_value            0                       # Number of insts commited each cycle
system.cpu1.commit.committed_per_cycle::max_value            8                       # Number of insts commited each cycle
system.cpu1.commit.committed_per_cycle::total    191663827                       # Number of insts commited each cycle
system.cpu1.commit.fp_insts                        12                       # Number of committed floating point instructions.
system.cpu1.commit.function_calls              320848                       # Number of function calls committed.
system.cpu1.commit.int_insts                 31049020                       # Number of committed integer instructions.
system.cpu1.commit.loads                      9248833                       # Number of loads committed
system.cpu1.commit.membars                    2035969                       # Number of memory barriers committed
system.cpu1.commit.op_class_0::No_OpClass      2035969      6.12%      6.12% # Class of committed instruction
system.cpu1.commit.op_class_0::IntAlu        19083274     57.34%     63.46% # Class of committed instruction
system.cpu1.commit.op_class_0::IntMult             42      0.00%     63.46% # Class of committed instruction
system.cpu1.commit.op_class_0::IntDiv              84      0.00%     63.46% # Class of committed instruction
system.cpu1.commit.op_class_0::FloatAdd             0      0.00%     63.46% # Class of committed instruction
system.cpu1.commit.op_class_0::FloatCmp             0      0.00%     63.46% # Class of committed instruction
system.cpu1.commit.op_class_0::FloatCvt             0      0.00%     63.46% # Class of committed instruction
system.cpu1.commit.op_class_0::FloatMult            0      0.00%     63.46% # Class of committed instruction
system.cpu1.commit.op_class_0::FloatMultAcc            0      0.00%     63.46% # Class of committed instruction
system.cpu1.commit.op_class_0::FloatDiv             0      0.00%     63.46% # Class of committed instruction
system.cpu1.commit.op_class_0::FloatMisc            0      0.00%     63.46% # Class of committed instruction
system.cpu1.commit.op_class_0::FloatSqrt            0      0.00%     63.46% # Class of committed instruction
system.cpu1.commit.op_class_0::SimdAdd              0      0.00%     63.46% # Class of committed instruction
system.cpu1.commit.op_class_0::SimdAddAcc            0      0.00%     63.46% # Class of committed instruction
system.cpu1.commit.op_class_0::SimdAlu              0      0.00%     63.46% # Class of committed instruction
system.cpu1.commit.op_class_0::SimdCmp              0      0.00%     63.46% # Class of committed instruction
system.cpu1.commit.op_class_0::SimdCvt              0      0.00%     63.46% # Class of committed instruction
system.cpu1.commit.op_class_0::SimdMisc             0      0.00%     63.46% # Class of committed instruction
system.cpu1.commit.op_class_0::SimdMult             0      0.00%     63.46% # Class of committed instruction
system.cpu1.commit.op_class_0::SimdMultAcc            0      0.00%     63.46% # Class of committed instruction
system.cpu1.commit.op_class_0::SimdShift            0      0.00%     63.46% # Class of committed instruction
system.cpu1.commit.op_class_0::SimdShiftAcc            0      0.00%     63.46% # Class of committed instruction
system.cpu1.commit.op_class_0::SimdDiv              0      0.00%     63.46% # Class of committed instruction
system.cpu1.commit.op_class_0::SimdSqrt             0      0.00%     63.46% # Class of committed instruction
system.cpu1.commit.op_class_0::SimdFloatAdd            0      0.00%     63.46% # Class of committed instruction
system.cpu1.commit.op_class_0::SimdFloatAlu            0      0.00%     63.46% # Class of committed instruction
system.cpu1.commit.op_class_0::SimdFloatCmp            0      0.00%     63.46% # Class of committed instruction
system.cpu1.commit.op_class_0::SimdFloatCvt            0      0.00%     63.46% # Class of committed instruction
system.cpu1.commit.op_class_0::SimdFloatDiv            0      0.00%     63.46% # Class of committed instruction
system.cpu1.commit.op_class_0::SimdFloatMisc            0      0.00%     63.46% # Class of committed instruction
system.cpu1.commit.op_class_0::SimdFloatMult            0      0.00%     63.46% # Class of committed instruction
system.cpu1.commit.op_class_0::SimdFloatMultAcc            0      0.00%     63.46% # Class of committed instruction
system.cpu1.commit.op_class_0::SimdFloatSqrt            0      0.00%     63.46% # Class of committed instruction
system.cpu1.commit.op_class_0::SimdReduceAdd            0      0.00%     63.46% # Class of committed instruction
system.cpu1.commit.op_class_0::SimdReduceAlu            0      0.00%     63.46% # Class of committed instruction
system.cpu1.commit.op_class_0::SimdReduceCmp            0      0.00%     63.46% # Class of committed instruction
system.cpu1.commit.op_class_0::SimdFloatReduceAdd            0      0.00%     63.46% # Class of committed instruction
system.cpu1.commit.op_class_0::SimdFloatReduceCmp            0      0.00%     63.46% # Class of committed instruction
system.cpu1.commit.op_class_0::SimdAes              0      0.00%     63.46% # Class of committed instruction
system.cpu1.commit.op_class_0::SimdAesMix            0      0.00%     63.46% # Class of committed instruction
system.cpu1.commit.op_class_0::SimdSha1Hash            0      0.00%     63.46% # Class of committed instruction
system.cpu1.commit.op_class_0::SimdSha1Hash2            0      0.00%     63.46% # Class of committed instruction
system.cpu1.commit.op_class_0::SimdSha256Hash            0      0.00%     63.46% # Class of committed instruction
system.cpu1.commit.op_class_0::SimdSha256Hash2            0      0.00%     63.46% # Class of committed instruction
system.cpu1.commit.op_class_0::SimdShaSigma2            0      0.00%     63.46% # Class of committed instruction
system.cpu1.commit.op_class_0::SimdShaSigma3            0      0.00%     63.46% # Class of committed instruction
system.cpu1.commit.op_class_0::SimdPredAlu            0      0.00%     63.46% # Class of committed instruction
system.cpu1.commit.op_class_0::MemRead       10266758     30.85%     94.30% # Class of committed instruction
system.cpu1.commit.op_class_0::MemWrite       1896089      5.70%    100.00% # Class of committed instruction
system.cpu1.commit.op_class_0::FloatMemRead            0      0.00%    100.00% # Class of committed instruction
system.cpu1.commit.op_class_0::FloatMemWrite           12      0.00%    100.00% # Class of committed instruction
system.cpu1.commit.op_class_0::IprAccess            0      0.00%    100.00% # Class of committed instruction
system.cpu1.commit.op_class_0::InstPrefetch            0      0.00%    100.00% # Class of committed instruction
system.cpu1.commit.op_class_0::total         33282228                       # Class of committed instruction
system.cpu1.commit.refs                      12162859                       # Number of memory references committed
system.cpu1.commit.swp_count                        0                       # Number of s/w prefetches committed
system.cpu1.commit.vec_insts                        0                       # Number of committed Vector instructions.
system.cpu1.committedInsts                   32264129                       # Number of Instructions Simulated
system.cpu1.committedOps                     33282228                       # Number of Ops (including micro ops) Simulated
system.cpu1.cpi                              5.985294                       # CPI: Cycles Per Instruction
system.cpu1.cpi_total                        5.985294                       # CPI: Total CPI of All Threads
system.cpu1.decode.BlockedCycles            169299505                       # Number of cycles decode is blocked
system.cpu1.decode.BranchMispred               380647                       # Number of times decode detected a branch misprediction
system.cpu1.decode.BranchResolved             4620472                       # Number of times decode resolved a branch
system.cpu1.decode.DecodedInsts              43335498                       # Number of instructions handled by decode
system.cpu1.decode.IdleCycles                 6145901                       # Number of cycles decode is idle
system.cpu1.decode.RunCycles                 14582569                       # Number of cycles decode is running
system.cpu1.decode.SquashCycles                570563                       # Number of cycles decode is squashing
system.cpu1.decode.SquashedInsts               607741                       # Number of squashed instructions handled by decode
system.cpu1.decode.UnblockCycles              2306359                       # Number of cycles decode is unblocking
system.cpu1.dtb.accesses                            0                       # DTB accesses
system.cpu1.dtb.hits                                0                       # DTB hits
system.cpu1.dtb.misses                              0                       # DTB misses
system.cpu1.dtb.read_accesses                       0                       # DTB read accesses
system.cpu1.dtb.read_hits                           0                       # DTB read hits
system.cpu1.dtb.read_misses                         0                       # DTB read misses
system.cpu1.dtb.write_accesses                      0                       # DTB write accesses
system.cpu1.dtb.write_hits                          0                       # DTB write hits
system.cpu1.dtb.write_misses                        0                       # DTB write misses
system.cpu1.fetch.Branches                   10002900                       # Number of branches that fetch encountered
system.cpu1.fetch.CacheLines                  6137257                       # Number of cache lines fetched
system.cpu1.fetch.Cycles                    185295699                       # Number of cycles fetch has run and was not squashing or blocked
system.cpu1.fetch.IcacheSquashes                55692                       # Number of outstanding Icache misses that were squashed
system.cpu1.fetch.Insts                      48101930                       # Number of instructions fetch has processed
system.cpu1.fetch.MiscStallCycles                   1                       # Number of cycles fetch has spent waiting on interrupts, or bad addresses, or out of MSHRs
system.cpu1.fetch.SquashCycles                1895390                       # Number of cycles fetch has spent squashing
system.cpu1.fetch.branchRate                 0.051799                       # Number of branch fetches per cycle
system.cpu1.fetch.icacheStallCycles           6661502                       # Number of cycles fetch is stalled on an Icache miss
system.cpu1.fetch.predictedBranches           5205982                       # Number of branches that fetch has predicted taken
system.cpu1.fetch.rate                       0.249090                       # Number of inst fetches per cycle
system.cpu1.fetch.rateDist::samples         192904897                       # Number of instructions fetched each cycle (Total)
system.cpu1.fetch.rateDist::mean             0.257032                       # Number of instructions fetched each cycle (Total)
system.cpu1.fetch.rateDist::stdev            0.718814                       # Number of instructions fetched each cycle (Total)
system.cpu1.fetch.rateDist::underflows              0      0.00%      0.00% # Number of instructions fetched each cycle (Total)
system.cpu1.fetch.rateDist::0               163819699     84.92%     84.92% # Number of instructions fetched each cycle (Total)
system.cpu1.fetch.rateDist::1                16301695      8.45%     93.37% # Number of instructions fetched each cycle (Total)
system.cpu1.fetch.rateDist::2                 7593221      3.94%     97.31% # Number of instructions fetched each cycle (Total)
system.cpu1.fetch.rateDist::3                 3301270      1.71%     99.02% # Number of instructions fetched each cycle (Total)
system.cpu1.fetch.rateDist::4                 1300339      0.67%     99.69% # Number of instructions fetched each cycle (Total)
system.cpu1.fetch.rateDist::5                  543025      0.28%     99.98% # Number of instructions fetched each cycle (Total)
system.cpu1.fetch.rateDist::6                   45377      0.02%    100.00% # Number of instructions fetched each cycle (Total)
system.cpu1.fetch.rateDist::7                      54      0.00%    100.00% # Number of instructions fetched each cycle (Total)
system.cpu1.fetch.rateDist::8                     217      0.00%    100.00% # Number of instructions fetched each cycle (Total)
system.cpu1.fetch.rateDist::overflows               0      0.00%    100.00% # Number of instructions fetched each cycle (Total)
system.cpu1.fetch.rateDist::min_value               0                       # Number of instructions fetched each cycle (Total)
system.cpu1.fetch.rateDist::max_value               8                       # Number of instructions fetched each cycle (Total)
system.cpu1.fetch.rateDist::total           192904897                       # Number of instructions fetched each cycle (Total)
system.cpu1.fp_regfile_reads                       12                       # number of floating regfile reads
system.cpu1.idleCycles                         205408                       # Total number of cycles that the CPU has spent unscheduled due to idling
system.cpu1.iew.branchMispredicts              598840                       # Number of branch mispredicts detected at execute
system.cpu1.iew.exec_branches                 7969437                       # Number of branches executed
system.cpu1.iew.exec_nop                            0                       # number of nop insts executed
system.cpu1.iew.exec_rate                    0.190332                       # Inst execution rate
system.cpu1.iew.exec_refs                    12960860                       # number of memory reference insts executed
system.cpu1.iew.exec_stores                   2946746                       # Number of stores executed
system.cpu1.iew.exec_swp                            0                       # number of swp insts executed
system.cpu1.iew.iewBlockCycles              147092684                       # Number of cycles IEW is blocking
system.cpu1.iew.iewDispLoadInsts             11202376                       # Number of dispatched load instructions
system.cpu1.iew.iewDispNonSpecInsts           1188619                       # Number of dispatched non-speculative instructions
system.cpu1.iew.iewDispSquashedInsts           474347                       # Number of squashed instructions skipped by dispatch
system.cpu1.iew.iewDispStoreInsts             3320043                       # Number of dispatched store instructions
system.cpu1.iew.iewDispatchedInsts           40719121                       # Number of instructions dispatched to IQ
system.cpu1.iew.iewExecLoadInsts             10014114                       # Number of load instructions executed
system.cpu1.iew.iewExecSquashedInsts           621203                       # Number of squashed instructions skipped in execute
system.cpu1.iew.iewExecutedInsts             36755117                       # Number of executed instructions
system.cpu1.iew.iewIQFullEvents               1096163                       # Number of times the IQ has become full, causing a stall
system.cpu1.iew.iewIdleCycles                       0                       # Number of cycles IEW is idle
system.cpu1.iew.iewLSQFullEvents              1447183                       # Number of times the LSQ has become full, causing a stall
system.cpu1.iew.iewSquashCycles                570563                       # Number of cycles IEW is squashing
system.cpu1.iew.iewUnblockCycles              3631403                       # Number of cycles IEW is unblocking
system.cpu1.iew.lsq.thread0.blockedLoads            0                       # Number of blocked loads due to partial load-store forwarding
system.cpu1.iew.lsq.thread0.cacheBlocked        17087                       # Number of times an access to memory failed due to the cache being blocked
system.cpu1.iew.lsq.thread0.forwLoads          161357                       # Number of loads that had data forwarded from stores
system.cpu1.iew.lsq.thread0.ignoredResponses         4856                       # Number of memory responses ignored because the instruction is squashed
system.cpu1.iew.lsq.thread0.invAddrLoads            0                       # Number of loads ignored due to an invalid address
system.cpu1.iew.lsq.thread0.invAddrSwpfs            0                       # Number of software prefetches ignored due to an invalid address
system.cpu1.iew.lsq.thread0.memOrderViolation          193                       # Number of memory ordering violations
system.cpu1.iew.lsq.thread0.rescheduledLoads          480                       # Number of loads that were rescheduled
system.cpu1.iew.lsq.thread0.squashedLoads      1953543                       # Number of loads squashed
system.cpu1.iew.lsq.thread0.squashedStores       406017                       # Number of stores squashed
system.cpu1.iew.memOrderViolationEvents           193                       # Number of memory order violations
system.cpu1.iew.predictedNotTakenIncorrect        90841                       # Number of branches that were predicted not taken incorrectly
system.cpu1.iew.predictedTakenIncorrect        507999                       # Number of branches that were predicted taken incorrectly
system.cpu1.iew.wb_consumers                 21276047                       # num instructions consuming a value
system.cpu1.iew.wb_count                     36475809                       # cumulative count of insts written-back
system.cpu1.iew.wb_fanout                    0.863244                       # average fanout of values written-back
system.cpu1.iew.wb_producers                 18366430                       # num instructions producing a value
system.cpu1.iew.wb_rate                      0.188886                       # insts written-back per cycle
system.cpu1.iew.wb_sent                      36483942                       # cumulative count of insts sent to commit
system.cpu1.int_regfile_reads                45322610                       # number of integer regfile reads
system.cpu1.int_regfile_writes               24740983                       # number of integer regfile writes
system.cpu1.ipc                              0.167076                       # IPC: Instructions Per Cycle
system.cpu1.ipc_total                        0.167076                       # IPC: Total IPC of All Threads
system.cpu1.iq.FU_type_0::No_OpClass          2036075      5.45%      5.45% # Type of FU issued
system.cpu1.iq.FU_type_0::IntAlu             22308908     59.69%     65.13% # Type of FU issued
system.cpu1.iq.FU_type_0::IntMult                  43      0.00%     65.13% # Type of FU issued
system.cpu1.iq.FU_type_0::IntDiv                   84      0.00%     65.14% # Type of FU issued
system.cpu1.iq.FU_type_0::FloatAdd                  0      0.00%     65.14% # Type of FU issued
system.cpu1.iq.FU_type_0::FloatCmp                  0      0.00%     65.14% # Type of FU issued
system.cpu1.iq.FU_type_0::FloatCvt                  0      0.00%     65.14% # Type of FU issued
system.cpu1.iq.FU_type_0::FloatMult                 0      0.00%     65.14% # Type of FU issued
system.cpu1.iq.FU_type_0::FloatMultAcc              0      0.00%     65.14% # Type of FU issued
system.cpu1.iq.FU_type_0::FloatDiv                  0      0.00%     65.14% # Type of FU issued
system.cpu1.iq.FU_type_0::FloatMisc                 0      0.00%     65.14% # Type of FU issued
system.cpu1.iq.FU_type_0::FloatSqrt                 0      0.00%     65.14% # Type of FU issued
system.cpu1.iq.FU_type_0::SimdAdd                   0      0.00%     65.14% # Type of FU issued
system.cpu1.iq.FU_type_0::SimdAddAcc                0      0.00%     65.14% # Type of FU issued
system.cpu1.iq.FU_type_0::SimdAlu                   0      0.00%     65.14% # Type of FU issued
system.cpu1.iq.FU_type_0::SimdCmp                   0      0.00%     65.14% # Type of FU issued
system.cpu1.iq.FU_type_0::SimdCvt                   0      0.00%     65.14% # Type of FU issued
system.cpu1.iq.FU_type_0::SimdMisc                  0      0.00%     65.14% # Type of FU issued
system.cpu1.iq.FU_type_0::SimdMult                  0      0.00%     65.14% # Type of FU issued
system.cpu1.iq.FU_type_0::SimdMultAcc               0      0.00%     65.14% # Type of FU issued
system.cpu1.iq.FU_type_0::SimdShift                 0      0.00%     65.14% # Type of FU issued
system.cpu1.iq.FU_type_0::SimdShiftAcc              0      0.00%     65.14% # Type of FU issued
system.cpu1.iq.FU_type_0::SimdDiv                   0      0.00%     65.14% # Type of FU issued
system.cpu1.iq.FU_type_0::SimdSqrt                  0      0.00%     65.14% # Type of FU issued
system.cpu1.iq.FU_type_0::SimdFloatAdd              0      0.00%     65.14% # Type of FU issued
system.cpu1.iq.FU_type_0::SimdFloatAlu              0      0.00%     65.14% # Type of FU issued
system.cpu1.iq.FU_type_0::SimdFloatCmp              0      0.00%     65.14% # Type of FU issued
system.cpu1.iq.FU_type_0::SimdFloatCvt              0      0.00%     65.14% # Type of FU issued
system.cpu1.iq.FU_type_0::SimdFloatDiv              0      0.00%     65.14% # Type of FU issued
system.cpu1.iq.FU_type_0::SimdFloatMisc             0      0.00%     65.14% # Type of FU issued
system.cpu1.iq.FU_type_0::SimdFloatMult             0      0.00%     65.14% # Type of FU issued
system.cpu1.iq.FU_type_0::SimdFloatMultAcc            0      0.00%     65.14% # Type of FU issued
system.cpu1.iq.FU_type_0::SimdFloatSqrt             0      0.00%     65.14% # Type of FU issued
system.cpu1.iq.FU_type_0::SimdReduceAdd             0      0.00%     65.14% # Type of FU issued
system.cpu1.iq.FU_type_0::SimdReduceAlu             0      0.00%     65.14% # Type of FU issued
system.cpu1.iq.FU_type_0::SimdReduceCmp             0      0.00%     65.14% # Type of FU issued
system.cpu1.iq.FU_type_0::SimdFloatReduceAdd            0      0.00%     65.14% # Type of FU issued
system.cpu1.iq.FU_type_0::SimdFloatReduceCmp            0      0.00%     65.14% # Type of FU issued
system.cpu1.iq.FU_type_0::SimdAes                   0      0.00%     65.14% # Type of FU issued
system.cpu1.iq.FU_type_0::SimdAesMix                0      0.00%     65.14% # Type of FU issued
system.cpu1.iq.FU_type_0::SimdSha1Hash              0      0.00%     65.14% # Type of FU issued
system.cpu1.iq.FU_type_0::SimdSha1Hash2             0      0.00%     65.14% # Type of FU issued
system.cpu1.iq.FU_type_0::SimdSha256Hash            0      0.00%     65.14% # Type of FU issued
system.cpu1.iq.FU_type_0::SimdSha256Hash2            0      0.00%     65.14% # Type of FU issued
system.cpu1.iq.FU_type_0::SimdShaSigma2             0      0.00%     65.14% # Type of FU issued
system.cpu1.iq.FU_type_0::SimdShaSigma3             0      0.00%     65.14% # Type of FU issued
system.cpu1.iq.FU_type_0::SimdPredAlu               0      0.00%     65.14% # Type of FU issued
system.cpu1.iq.FU_type_0::MemRead            11094326     29.68%     94.82% # Type of FU issued
system.cpu1.iq.FU_type_0::MemWrite            1936872      5.18%    100.00% # Type of FU issued
system.cpu1.iq.FU_type_0::FloatMemRead              0      0.00%    100.00% # Type of FU issued
system.cpu1.iq.FU_type_0::FloatMemWrite            12      0.00%    100.00% # Type of FU issued
system.cpu1.iq.FU_type_0::IprAccess                 0      0.00%    100.00% # Type of FU issued
system.cpu1.iq.FU_type_0::InstPrefetch              0      0.00%    100.00% # Type of FU issued
system.cpu1.iq.FU_type_0::total              37376320                       # Type of FU issued
system.cpu1.iq.fp_alu_accesses                     14                       # Number of floating point alu accesses
system.cpu1.iq.fp_inst_queue_reads                 26                       # Number of floating instruction queue reads
system.cpu1.iq.fp_inst_queue_wakeup_accesses           12                       # Number of floating instruction queue wakeup accesses
system.cpu1.iq.fp_inst_queue_writes                12                       # Number of floating instruction queue writes
system.cpu1.iq.fu_busy_cnt                    1090601                       # FU busy when requested
system.cpu1.iq.fu_busy_rate                  0.029179                       # FU busy rate (busy events/executed inst)
system.cpu1.iq.fu_full::No_OpClass                  0      0.00%      0.00% # attempts to use FU when none available
system.cpu1.iq.fu_full::IntAlu                 201727     18.50%     18.50% # attempts to use FU when none available
system.cpu1.iq.fu_full::IntMult                     0      0.00%     18.50% # attempts to use FU when none available
system.cpu1.iq.fu_full::IntDiv                      0      0.00%     18.50% # attempts to use FU when none available
system.cpu1.iq.fu_full::FloatAdd                    0      0.00%     18.50% # attempts to use FU when none available
system.cpu1.iq.fu_full::FloatCmp                    0      0.00%     18.50% # attempts to use FU when none available
system.cpu1.iq.fu_full::FloatCvt                    0      0.00%     18.50% # attempts to use FU when none available
system.cpu1.iq.fu_full::FloatMult                   0      0.00%     18.50% # attempts to use FU when none available
system.cpu1.iq.fu_full::FloatMultAcc                0      0.00%     18.50% # attempts to use FU when none available
system.cpu1.iq.fu_full::FloatDiv                    0      0.00%     18.50% # attempts to use FU when none available
system.cpu1.iq.fu_full::FloatMisc                   0      0.00%     18.50% # attempts to use FU when none available
system.cpu1.iq.fu_full::FloatSqrt                   0      0.00%     18.50% # attempts to use FU when none available
system.cpu1.iq.fu_full::SimdAdd                     0      0.00%     18.50% # attempts to use FU when none available
system.cpu1.iq.fu_full::SimdAddAcc                  0      0.00%     18.50% # attempts to use FU when none available
system.cpu1.iq.fu_full::SimdAlu                     0      0.00%     18.50% # attempts to use FU when none available
system.cpu1.iq.fu_full::SimdCmp                     0      0.00%     18.50% # attempts to use FU when none available
system.cpu1.iq.fu_full::SimdCvt                     0      0.00%     18.50% # attempts to use FU when none available
system.cpu1.iq.fu_full::SimdMisc                    0      0.00%     18.50% # attempts to use FU when none available
system.cpu1.iq.fu_full::SimdMult                    0      0.00%     18.50% # attempts to use FU when none available
system.cpu1.iq.fu_full::SimdMultAcc                 0      0.00%     18.50% # attempts to use FU when none available
system.cpu1.iq.fu_full::SimdShift                   0      0.00%     18.50% # attempts to use FU when none available
system.cpu1.iq.fu_full::SimdShiftAcc                0      0.00%     18.50% # attempts to use FU when none available
system.cpu1.iq.fu_full::SimdDiv                     0      0.00%     18.50% # attempts to use FU when none available
system.cpu1.iq.fu_full::SimdSqrt                    0      0.00%     18.50% # attempts to use FU when none available
system.cpu1.iq.fu_full::SimdFloatAdd                0      0.00%     18.50% # attempts to use FU when none available
system.cpu1.iq.fu_full::SimdFloatAlu                0      0.00%     18.50% # attempts to use FU when none available
system.cpu1.iq.fu_full::SimdFloatCmp                0      0.00%     18.50% # attempts to use FU when none available
system.cpu1.iq.fu_full::SimdFloatCvt                0      0.00%     18.50% # attempts to use FU when none available
system.cpu1.iq.fu_full::SimdFloatDiv                0      0.00%     18.50% # attempts to use FU when none available
system.cpu1.iq.fu_full::SimdFloatMisc               0      0.00%     18.50% # attempts to use FU when none available
system.cpu1.iq.fu_full::SimdFloatMult               0      0.00%     18.50% # attempts to use FU when none available
system.cpu1.iq.fu_full::SimdFloatMultAcc            0      0.00%     18.50% # attempts to use FU when none available
system.cpu1.iq.fu_full::SimdFloatSqrt               0      0.00%     18.50% # attempts to use FU when none available
system.cpu1.iq.fu_full::SimdReduceAdd               0      0.00%     18.50% # attempts to use FU when none available
system.cpu1.iq.fu_full::SimdReduceAlu               0      0.00%     18.50% # attempts to use FU when none available
system.cpu1.iq.fu_full::SimdReduceCmp               0      0.00%     18.50% # attempts to use FU when none available
system.cpu1.iq.fu_full::SimdFloatReduceAdd            0      0.00%     18.50% # attempts to use FU when none available
system.cpu1.iq.fu_full::SimdFloatReduceCmp            0      0.00%     18.50% # attempts to use FU when none available
system.cpu1.iq.fu_full::SimdAes                     0      0.00%     18.50% # attempts to use FU when none available
system.cpu1.iq.fu_full::SimdAesMix                  0      0.00%     18.50% # attempts to use FU when none available
system.cpu1.iq.fu_full::SimdSha1Hash                0      0.00%     18.50% # attempts to use FU when none available
system.cpu1.iq.fu_full::SimdSha1Hash2               0      0.00%     18.50% # attempts to use FU when none available
system.cpu1.iq.fu_full::SimdSha256Hash              0      0.00%     18.50% # attempts to use FU when none available
system.cpu1.iq.fu_full::SimdSha256Hash2             0      0.00%     18.50% # attempts to use FU when none available
system.cpu1.iq.fu_full::SimdShaSigma2               0      0.00%     18.50% # attempts to use FU when none available
system.cpu1.iq.fu_full::SimdShaSigma3               0      0.00%     18.50% # attempts to use FU when none available
system.cpu1.iq.fu_full::SimdPredAlu                 0      0.00%     18.50% # attempts to use FU when none available
system.cpu1.iq.fu_full::MemRead                800972     73.44%     91.94% # attempts to use FU when none available
system.cpu1.iq.fu_full::MemWrite                87900      8.06%    100.00% # attempts to use FU when none available
[...]
system.cpu1.dcache.ReadReq_miss_rate::total     0.220509                       # miss rate for ReadReq accesses
system.cpu1.dcache.ReadReq_avg_miss_latency::.cpu1.data 76898.937023                       # average ReadReq miss latency
system.cpu1.dcache.ReadReq_avg_miss_latency::total 76898.937023                       # average ReadReq miss latency
system.cpu1.dcache.ReadReq_mshr_hits::.cpu1.data      2245498                       # number of ReadReq MSHR hits
system.cpu1.dcache.ReadReq_mshr_hits::total      2245498                       # number of ReadReq MSHR hits
system.cpu1.dcache.ReadReq_mshr_misses::.cpu1.data      1115911                       # number of ReadReq MSHR misses
system.cpu1.dcache.ReadReq_mshr_misses::total      1115911                       # number of ReadReq MSHR misses
system.cpu1.dcache.ReadReq_mshr_miss_latency::.cpu1.data 103027400500                       # number of ReadReq MSHR miss cycles
system.cpu1.dcache.ReadReq_mshr_miss_latency::total 103027400500                       # number of ReadReq MSHR miss cycles
system.cpu1.dcache.ReadReq_mshr_miss_rate::.cpu1.data     0.073204                       # mshr miss rate for ReadReq accesses
system.cpu1.dcache.ReadReq_mshr_miss_rate::total     0.073204                       # mshr miss rate for ReadReq accesses
system.cpu1.dcache.ReadReq_avg_mshr_miss_latency::.cpu1.data 92325.822131                       # average ReadReq mshr miss latency
system.cpu1.dcache.ReadReq_avg_mshr_miss_latency::total 92325.822131                       # average ReadReq mshr miss latency
system.cpu1.dcache.WriteReq_hits::.cpu1.data      1038304                       # number of WriteReq hits
system.cpu1.dcache.WriteReq_hits::total       1038304                       # number of WriteReq hits
system.cpu1.dcache.WriteReq_misses::.cpu1.data       416807                       # number of WriteReq misses
system.cpu1.dcache.WriteReq_misses::total       416807                       # number of WriteReq misses
system.cpu1.dcache.WriteReq_miss_latency::.cpu1.data  29141508484                       # number of WriteReq miss cycles
system.cpu1.dcache.WriteReq_miss_latency::total  29141508484                       # number of WriteReq miss cycles
system.cpu1.dcache.WriteReq_accesses::.cpu1.data      1455111                       # number of WriteReq accesses(hits+misses)
system.cpu1.dcache.WriteReq_accesses::total      1455111                       # number of WriteReq accesses(hits+misses)
system.cpu1.dcache.WriteReq_miss_rate::.cpu1.data     0.286443                       # miss rate for WriteReq accesses
system.cpu1.dcache.WriteReq_miss_rate::total     0.286443                       # miss rate for WriteReq accesses
system.cpu1.dcache.WriteReq_avg_miss_latency::.cpu1.data 69916.072628                       # average WriteReq miss latency
system.cpu1.dcache.WriteReq_avg_miss_latency::total 69916.072628                       # average WriteReq miss latency
system.cpu1.dcache.WriteReq_mshr_hits::.cpu1.data       376962                       # number of WriteReq MSHR hits
system.cpu1.dcache.WriteReq_mshr_hits::total       376962                       # number of WriteReq MSHR hits
system.cpu1.dcache.WriteReq_mshr_misses::.cpu1.data        39845                       # number of WriteReq MSHR misses
system.cpu1.dcache.WriteReq_mshr_misses::total        39845                       # number of WriteReq MSHR misses
system.cpu1.dcache.WriteReq_mshr_miss_latency::.cpu1.data   2669206488                       # number of WriteReq MSHR miss cycles
system.cpu1.dcache.WriteReq_mshr_miss_latency::total   2669206488                       # number of WriteReq MSHR miss cycles
system.cpu1.dcache.WriteReq_mshr_miss_rate::.cpu1.data     0.027383                       # mshr miss rate for WriteReq accesses
system.cpu1.dcache.WriteReq_mshr_miss_rate::total     0.027383                       # mshr miss rate for WriteReq accesses
system.cpu1.dcache.WriteReq_avg_mshr_miss_latency::.cpu1.data 66989.747471                       # average WriteReq mshr miss latency
system.cpu1.dcache.WriteReq_avg_mshr_miss_latency::total 66989.747471                       # average WriteReq mshr miss latency
system.cpu1.dcache.LoadLockedReq_hits::.cpu1.data          687                       # number of LoadLockedReq hits
system.cpu1.dcache.LoadLockedReq_hits::total          687                       # number of LoadLockedReq hits
system.cpu1.dcache.LoadLockedReq_misses::.cpu1.data          151                       # number of LoadLockedReq misses
system.cpu1.dcache.LoadLockedReq_misses::total          151                       # number of LoadLockedReq misses
system.cpu1.dcache.LoadLockedReq_miss_latency::.cpu1.data     11248500                       # number of LoadLockedReq miss cycles
system.cpu1.dcache.LoadLockedReq_miss_latency::total     11248500                       # number of LoadLockedReq miss cycles
system.cpu1.dcache.LoadLockedReq_accesses::.cpu1.data          838                       # number of LoadLockedReq accesses(hits+misses)
system.cpu1.dcache.LoadLockedReq_accesses::total          838                       # number of LoadLockedReq accesses(hits+misses)
system.cpu1.dcache.LoadLockedReq_miss_rate::.cpu1.data     0.180191                       # miss rate for LoadLockedReq accesses
system.cpu1.dcache.LoadLockedReq_miss_rate::total     0.180191                       # miss rate for LoadLockedReq accesses
system.cpu1.dcache.LoadLockedReq_avg_miss_latency::.cpu1.data 74493.377483                       # average LoadLockedReq miss latency
system.cpu1.dcache.LoadLockedReq_avg_miss_latency::total 74493.377483                       # average LoadLockedReq miss latency
system.cpu1.dcache.LoadLockedReq_mshr_hits::.cpu1.data           68                       # number of LoadLockedReq MSHR hits
system.cpu1.dcache.LoadLockedReq_mshr_hits::total           68                       # number of LoadLockedReq MSHR hits
system.cpu1.dcache.LoadLockedReq_mshr_misses::.cpu1.data           83                       # number of LoadLockedReq MSHR misses
system.cpu1.dcache.LoadLockedReq_mshr_misses::total           83                       # number of LoadLockedReq MSHR misses
system.cpu1.dcache.LoadLockedReq_mshr_miss_latency::.cpu1.data      6438500                       # number of LoadLockedReq MSHR miss cycles
system.cpu1.dcache.LoadLockedReq_mshr_miss_latency::total      6438500                       # number of LoadLockedReq MSHR miss cycles
system.cpu1.dcache.LoadLockedReq_mshr_miss_rate::.cpu1.data     0.099045                       # mshr miss rate for LoadLockedReq accesses
system.cpu1.dcache.LoadLockedReq_mshr_miss_rate::total     0.099045                       # mshr miss rate for LoadLockedReq accesses
system.cpu1.dcache.LoadLockedReq_avg_mshr_miss_latency::.cpu1.data 77572.289157                       # average LoadLockedReq mshr miss latency
system.cpu1.dcache.LoadLockedReq_avg_mshr_miss_latency::total 77572.289157                       # average LoadLockedReq mshr miss latency
system.cpu1.dcache.StoreCondReq_hits::.cpu1.data          568                       # number of StoreCondReq hits
system.cpu1.dcache.StoreCondReq_hits::total          568                       # number of StoreCondReq hits
system.cpu1.dcache.StoreCondReq_misses::.cpu1.data          231                       # number of StoreCondReq misses
system.cpu1.dcache.StoreCondReq_misses::total          231                       # number of StoreCondReq misses
system.cpu1.dcache.StoreCondReq_miss_latency::.cpu1.data      1804000                       # number of StoreCondReq miss cycles
system.cpu1.dcache.StoreCondReq_miss_latency::total      1804000                       # number of StoreCondReq miss cycles
system.cpu1.dcache.StoreCondReq_accesses::.cpu1.data          799                       # number of StoreCondReq accesses(hits+misses)
system.cpu1.dcache.StoreCondReq_accesses::total          799                       # number of StoreCondReq accesses(hits+misses)
system.cpu1.dcache.StoreCondReq_miss_rate::.cpu1.data     0.289111                       # miss rate for StoreCondReq accesses
system.cpu1.dcache.StoreCondReq_miss_rate::total     0.289111                       # miss rate for StoreCondReq accesses
system.cpu1.dcache.StoreCondReq_avg_miss_latency::.cpu1.data  7809.523810                       # average StoreCondReq miss latency
system.cpu1.dcache.StoreCondReq_avg_miss_latency::total  7809.523810                       # average StoreCondReq miss latency
system.cpu1.dcache.StoreCondReq_mshr_misses::.cpu1.data          230                       # number of StoreCondReq MSHR misses
system.cpu1.dcache.StoreCondReq_mshr_misses::total          230                       # number of StoreCondReq MSHR misses
system.cpu1.dcache.StoreCondReq_mshr_miss_latency::.cpu1.data      1574000                       # number of StoreCondReq MSHR miss cycles
system.cpu1.dcache.StoreCondReq_mshr_miss_latency::total      1574000                       # number of StoreCondReq MSHR miss cycles
system.cpu1.dcache.StoreCondReq_mshr_miss_rate::.cpu1.data     0.287860                       # mshr miss rate for StoreCondReq accesses
system.cpu1.dcache.StoreCondReq_mshr_miss_rate::total     0.287860                       # mshr miss rate for StoreCondReq accesses
system.cpu1.dcache.StoreCondReq_avg_mshr_miss_latency::.cpu1.data  6843.478261                       # average StoreCondReq mshr miss latency
system.cpu1.dcache.StoreCondReq_avg_mshr_miss_latency::total  6843.478261                       # average StoreCondReq mshr miss latency
system.cpu1.dcache.SwapReq_hits::.cpu1.data          304                       # number of SwapReq hits
system.cpu1.dcache.SwapReq_hits::total            304                       # number of SwapReq hits
system.cpu1.dcache.SwapReq_misses::.cpu1.data          157                       # number of SwapReq misses
system.cpu1.dcache.SwapReq_misses::total          157                       # number of SwapReq misses
system.cpu1.dcache.SwapReq_miss_latency::.cpu1.data       915500                       # number of SwapReq miss cycles
system.cpu1.dcache.SwapReq_miss_latency::total       915500                       # number of SwapReq miss cycles
system.cpu1.dcache.SwapReq_accesses::.cpu1.data          461                       # number of SwapReq accesses(hits+misses)
system.cpu1.dcache.SwapReq_accesses::total          461                       # number of SwapReq accesses(hits+misses)
system.cpu1.dcache.SwapReq_miss_rate::.cpu1.data     0.340564                       # miss rate for SwapReq accesses
system.cpu1.dcache.SwapReq_miss_rate::total     0.340564                       # miss rate for SwapReq accesses
system.cpu1.dcache.SwapReq_avg_miss_latency::.cpu1.data  5831.210191                       # average SwapReq miss latency
system.cpu1.dcache.SwapReq_avg_miss_latency::total  5831.210191                       # average SwapReq miss latency
system.cpu1.dcache.SwapReq_mshr_misses::.cpu1.data          157                       # number of SwapReq MSHR misses
system.cpu1.dcache.SwapReq_mshr_misses::total          157                       # number of SwapReq MSHR misses
system.cpu1.dcache.SwapReq_mshr_miss_latency::.cpu1.data       758500                       # number of SwapReq MSHR miss cycles
system.cpu1.dcache.SwapReq_mshr_miss_latency::total       758500                       # number of SwapReq MSHR miss cycles
system.cpu1.dcache.SwapReq_mshr_miss_rate::.cpu1.data     0.340564                       # mshr miss rate for SwapReq accesses
system.cpu1.dcache.SwapReq_mshr_miss_rate::total     0.340564                       # mshr miss rate for SwapReq accesses
system.cpu1.dcache.SwapReq_avg_mshr_miss_latency::.cpu1.data  4831.210191                       # average SwapReq mshr miss latency
system.cpu1.dcache.SwapReq_avg_mshr_miss_latency::total  4831.210191                       # average SwapReq mshr miss latency
system.cpu1.dcache.tags.pwrStateResidencyTicks::UNDEFINED 338602641500                       # Cumulative time (in ticks) in various power states
system.cpu1.dcache.tags.tagsinuse           31.086801                       # Cycle average of tags in use
system.cpu1.dcache.tags.total_refs           14082549                       # Total number of references to valid blocks.
system.cpu1.dcache.tags.sampled_refs          1155535                       # Sample count of references to valid blocks.
system.cpu1.dcache.tags.avg_refs            12.187038                       # Average number of references to valid blocks.
system.cpu1.dcache.tags.warmup_cycle                0                       # Cycle when the warmup percentage was hit.
system.cpu1.dcache.tags.occ_blocks::.cpu1.data    31.086801                       # Average occupied blocks per requestor
system.cpu1.dcache.tags.occ_percent::.cpu1.data     0.971463                       # Average percentage of cache occupancy
system.cpu1.dcache.tags.occ_percent::total     0.971463                       # Average percentage of cache occupancy
system.cpu1.dcache.tags.occ_task_id_blocks::1024           29                       # Occupied blocks per task id
system.cpu1.dcache.tags.age_task_id_blocks_1024::1           29                       # Occupied blocks per task id
system.cpu1.dcache.tags.occ_task_id_percent::1024     0.906250                       # Percentage of cache occupancy per task id
system.cpu1.dcache.tags.tag_accesses         34557682                       # Number of tag accesses
system.cpu1.dcache.tags.data_accesses        34557682                       # Number of data accesses
system.cpu_clk_domain.clock                       500                       # Clock period in ticks
system.tol2bus.pwrStateResidencyTicks::UNDEFINED 338602641500                       # Cumulative time (in ticks) in various power states
system.tol2bus.trans_dist::ReadResp          13756778                       # Transaction distribution
system.tol2bus.trans_dist::WritebackDirty      1141231                       # Transaction distribution
system.tol2bus.trans_dist::WritebackClean     13231144                       # Transaction distribution
system.tol2bus.trans_dist::CleanEvict        33422673                       # Transaction distribution
system.tol2bus.trans_dist::HardPFReq         22187754                       # Transaction distribution
system.tol2bus.trans_dist::HardPFResp               2                       # Transaction distribution
system.tol2bus.trans_dist::UpgradeReq            1816                       # Transaction distribution
system.tol2bus.trans_dist::SCUpgradeReq           472                       # Transaction distribution
system.tol2bus.trans_dist::UpgradeResp           2288                       # Transaction distribution
system.tol2bus.trans_dist::ReadExReq            83993                       # Transaction distribution
system.tol2bus.trans_dist::ReadExResp           83993                       # Transaction distribution
system.tol2bus.trans_dist::ReadCleanReq         17750                       # Transaction distribution
system.tol2bus.trans_dist::ReadSharedReq     13739028                       # Transaction distribution
system.tol2bus.pkt_count_system.cpu0.icache.mem_side::system.l2.cpu_side        45699                       # Packet count per connected master and slave (bytes)
system.tol2bus.pkt_count_system.cpu0.dcache.mem_side::system.l2.cpu_side     38002690                       # Packet count per connected master and slave (bytes)
system.tol2bus.pkt_count_system.cpu1.icache.mem_side::system.l2.cpu_side         7551                       # Packet count per connected master and slave (bytes)
system.tol2bus.pkt_count_system.cpu1.dcache.mem_side::system.l2.cpu_side      3463673                       # Packet count per connected master and slave (bytes)
system.tol2bus.pkt_count::total              41519613                       # Packet count per connected master and slave (bytes)
system.tol2bus.pkt_size_system.cpu0.icache.mem_side::system.l2.cpu_side      1949824                       # Cumulative packet size per connected master and slave (bytes)
system.tol2bus.pkt_size_system.cpu0.dcache.mem_side::system.l2.cpu_side   1621303040                       # Cumulative packet size per connected master and slave (bytes)
system.tol2bus.pkt_size_system.cpu1.icache.mem_side::system.l2.cpu_side       322176                       # Cumulative packet size per connected master and slave (bytes)
system.tol2bus.pkt_size_system.cpu1.dcache.mem_side::system.l2.cpu_side    147663360                       # Cumulative packet size per connected master and slave (bytes)
system.tol2bus.pkt_size::total             1771238400                       # Cumulative packet size per connected master and slave (bytes)
system.tol2bus.snoops                        56149311                       # Total snoops (count)
system.tol2bus.snoopTraffic                  34403200                       # Total snoop traffic (bytes)
system.tol2bus.snoop_fanout::samples         69987908                       # Request fanout histogram
system.tol2bus.snoop_fanout::mean            0.162342                       # Request fanout histogram
system.tol2bus.snoop_fanout::stdev           0.373495                       # Request fanout histogram
system.tol2bus.snoop_fanout::underflows             0      0.00%      0.00% # Request fanout histogram
system.tol2bus.snoop_fanout::0               58748824     83.94%     83.94% # Request fanout histogram
system.tol2bus.snoop_fanout::1               11116208     15.88%     99.82% # Request fanout histogram
system.tol2bus.snoop_fanout::2                 122876      0.18%    100.00% # Request fanout histogram
system.tol2bus.snoop_fanout::3                      0      0.00%    100.00% # Request fanout histogram
system.tol2bus.snoop_fanout::4                      0      0.00%    100.00% # Request fanout histogram
system.tol2bus.snoop_fanout::5                      0      0.00%    100.00% # Request fanout histogram
system.tol2bus.snoop_fanout::6                      0      0.00%    100.00% # Request fanout histogram
system.tol2bus.snoop_fanout::7                      0      0.00%    100.00% # Request fanout histogram
system.tol2bus.snoop_fanout::8                      0      0.00%    100.00% # Request fanout histogram
system.tol2bus.snoop_fanout::overflows              0      0.00%    100.00% # Request fanout histogram
system.tol2bus.snoop_fanout::min_value              0                       # Request fanout histogram
system.tol2bus.snoop_fanout::max_value              2                       # Request fanout histogram
system.tol2bus.snoop_fanout::total           69987908                       # Request fanout histogram
system.tol2bus.reqLayer0.occupancy        27679647827                       # Layer occupancy (ticks)
system.tol2bus.reqLayer0.utilization              8.2                       # Layer utilization (%)
system.tol2bus.respLayer1.occupancy       19003617855                       # Layer occupancy (ticks)
system.tol2bus.respLayer1.utilization             5.6                       # Layer utilization (%)
system.tol2bus.respLayer0.occupancy          22861975                       # Layer occupancy (ticks)
system.tol2bus.respLayer0.utilization             0.0                       # Layer utilization (%)
system.tol2bus.respLayer3.occupancy        1735856034                       # Layer occupancy (ticks)
system.tol2bus.respLayer3.utilization             0.5                       # Layer utilization (%)
system.tol2bus.respLayer2.occupancy           3779492                       # Layer occupancy (ticks)
system.tol2bus.respLayer2.utilization             0.0                       # Layer utilization (%)
system.tol2bus.snoopLayer0.occupancy             3000                       # Layer occupancy (ticks)
system.tol2bus.snoopLayer0.utilization            0.0                       # Layer utilization (%)

---------- End Simulation Statistics   ----------
