
---------- Begin Simulation Statistics ----------
final_tick                               688291876000                       # Number of ticks from beginning of simulation (restored from checkpoints and never reset)
host_inst_rate                                  77087                       # Simulator instruction rate (inst/s)
host_mem_usage                                 701716                       # Number of bytes of host memory used
host_op_rate                                    77318                       # Simulator op (including micro ops) rate (op/s)
host_seconds                                  8834.25                       # Real time elapsed on the host
host_tick_rate                               77911715                       # Simulator tick rate (ticks/s)
sim_freq                                 1000000000000                       # Frequency of simulated ticks
sim_insts                                   681007098                       # Number of instructions simulated
sim_ops                                     683044706                       # Number of ops (including micro ops) simulated
sim_seconds                                  0.688292                       # Number of seconds simulated
sim_ticks                                688291876000                       # Number of ticks simulated
system.cpu0.branchPred.BTBCorrect                   0                       # Number of correct BTB predictions (this stat may not work properly.
system.cpu0.branchPred.BTBHitPct            84.404919                       # BTB Hit Percentage
system.cpu0.branchPred.BTBHits               85826801                       # Number of BTB hits
system.cpu0.branchPred.BTBLookups           101684596                       # Number of BTB lookups
system.cpu0.branchPred.RASInCorrect                 0                       # Number of incorrect RAS predictions.
system.cpu0.branchPred.condIncorrect          8753009                       # Number of conditional branches incorrect
system.cpu0.branchPred.condPredicted        133289749                       # Number of conditional branches predicted
system.cpu0.branchPred.indirectHits          14363624                       # Number of indirect target hits.
system.cpu0.branchPred.indirectLookups       14494682                       # Number of indirect predictor lookups.
system.cpu0.branchPred.indirectMisses          131058                       # Number of indirect misses.
system.cpu0.branchPred.lookups              171745569                       # Number of BP lookups
system.cpu0.branchPred.usedRAS                      0                       # Number of times the RAS was used to get a target.
system.cpu0.branchPredindirectMispredicted      1083812                       # Number of mispredicted indirect branches.
system.cpu0.commit.amos                       1018211                       # Number of atomic instructions committed
system.cpu0.commit.branchMispredicts          5578735                       # The number of times a branch was mispredicted
system.cpu0.commit.branches                 151196955                       # Number of branches committed
system.cpu0.commit.bw_lim_events             22634614                       # number cycles where commit BW limit reached
system.cpu0.commit.commitNonSpecStalls        3058519                       # The number of times commit has been forced to stall to communicate backwards
system.cpu0.commit.commitSquashedInsts       87200932                       # The number of squashed insts skipped by commit
system.cpu0.commit.committedInsts           623616531                       # Number of instructions committed
system.cpu0.commit.committedOps             624636031                       # Number of ops (including micro ops) committed
system.cpu0.commit.committed_per_cycle::samples   1151453431                       # Number of insts commited each cycle
system.cpu0.commit.committed_per_cycle::mean     0.542476                       # Number of insts commited each cycle
system.cpu0.commit.committed_per_cycle::stdev     1.387337                       # Number of insts commited each cycle
system.cpu0.commit.committed_per_cycle::underflows            0      0.00%      0.00% # Number of insts commited each cycle
system.cpu0.commit.committed_per_cycle::0    872260402     75.75%     75.75% # Number of insts commited each cycle
system.cpu0.commit.committed_per_cycle::1    159515606     13.85%     89.61% # Number of insts commited each cycle
system.cpu0.commit.committed_per_cycle::2     42407511      3.68%     93.29% # Number of insts commited each cycle
system.cpu0.commit.committed_per_cycle::3     32048950      2.78%     96.07% # Number of insts commited each cycle
system.cpu0.commit.committed_per_cycle::4     14727625      1.28%     97.35% # Number of insts commited each cycle
system.cpu0.commit.committed_per_cycle::5      4527356      0.39%     97.74% # Number of insts commited each cycle
system.cpu0.commit.committed_per_cycle::6      1785208      0.16%     97.90% # Number of insts commited each cycle
system.cpu0.commit.committed_per_cycle::7      1546159      0.13%     98.03% # Number of insts commited each cycle
system.cpu0.commit.committed_per_cycle::8     22634614      1.97%    100.00% # Number of insts commited each cycle
system.cpu0.commit.committed_per_cycle::overflows            0      0.00%    100.00% # Number of insts commited each cycle
system.cpu0.commit.committed_per_cycle::min_value            0                       # Number of insts commited each cycle
system.cpu0.commit.committed_per_cycle::max_value            8                       # Number of insts commited each cycle
system.cpu0.commit.committed_per_cycle::total   1151453431                       # Number of insts commited each cycle
system.cpu0.commit.fp_insts                        50                       # Number of committed floating point instructions.
system.cpu0.commit.function_calls            13130261                       # Number of function calls committed.
system.cpu0.commit.int_insts                604932072                       # Number of committed integer instructions.
system.cpu0.commit.loads                    190145142                       # Number of loads committed
system.cpu0.commit.membars                    2037606                       # Number of memory barriers committed
system.cpu0.commit.op_class_0::No_OpClass      2037612      0.33%      0.33% # Class of committed instruction
system.cpu0.commit.op_class_0::IntAlu       347101877     55.57%     55.89% # Class of committed instruction
system.cpu0.commit.op_class_0::IntMult        4400507      0.70%     56.60% # Class of committed instruction
system.cpu0.commit.op_class_0::IntDiv         1542070      0.25%     56.85% # Class of committed instruction
system.cpu0.commit.op_class_0::FloatAdd             0      0.00%     56.85% # Class of committed instruction
system.cpu0.commit.op_class_0::FloatCmp             4      0.00%     56.85% # Class of committed instruction
system.cpu0.commit.op_class_0::FloatCvt            12      0.00%     56.85% # Class of committed instruction
system.cpu0.commit.op_class_0::FloatMult            0      0.00%     56.85% # Class of committed instruction
system.cpu0.commit.op_class_0::FloatMultAcc            0      0.00%     56.85% # Class of committed instruction
system.cpu0.commit.op_class_0::FloatDiv             2      0.00%     56.85% # Class of committed instruction
system.cpu0.commit.op_class_0::FloatMisc            4      0.00%     56.85% # Class of committed instruction
system.cpu0.commit.op_class_0::FloatSqrt            0      0.00%     56.85% # Class of committed instruction
system.cpu0.commit.op_class_0::SimdAdd              0      0.00%     56.85% # Class of committed instruction
system.cpu0.commit.op_class_0::SimdAddAcc            0      0.00%     56.85% # Class of committed instruction
system.cpu0.commit.op_class_0::SimdAlu              0      0.00%     56.85% # Class of committed instruction
system.cpu0.commit.op_class_0::SimdCmp              0      0.00%     56.85% # Class of committed instruction
system.cpu0.commit.op_class_0::SimdCvt              0      0.00%     56.85% # Class of committed instruction
system.cpu0.commit.op_class_0::SimdMisc             0      0.00%     56.85% # Class of committed instruction
system.cpu0.commit.op_class_0::SimdMult             0      0.00%     56.85% # Class of committed instruction
system.cpu0.commit.op_class_0::SimdMultAcc            0      0.00%     56.85% # Class of committed instruction
system.cpu0.commit.op_class_0::SimdShift            0      0.00%     56.85% # Class of committed instruction
system.cpu0.commit.op_class_0::SimdShiftAcc            0      0.00%     56.85% # Class of committed instruction
system.cpu0.commit.op_class_0::SimdDiv              0      0.00%     56.85% # Class of committed instruction
system.cpu0.commit.op_class_0::SimdSqrt             0      0.00%     56.85% # Class of committed instruction
system.cpu0.commit.op_class_0::SimdFloatAdd            0      0.00%     56.85% # Class of committed instruction
system.cpu0.commit.op_class_0::SimdFloatAlu            0      0.00%     56.85% # Class of committed instruction
system.cpu0.commit.op_class_0::SimdFloatCmp            0      0.00%     56.85% # Class of committed instruction
system.cpu0.commit.op_class_0::SimdFloatCvt            0      0.00%     56.85% # Class of committed instruction
system.cpu0.commit.op_class_0::SimdFloatDiv            0      0.00%     56.85% # Class of committed instruction
system.cpu0.commit.op_class_0::SimdFloatMisc            0      0.00%     56.85% # Class of committed instruction
system.cpu0.commit.op_class_0::SimdFloatMult            0      0.00%     56.85% # Class of committed instruction
system.cpu0.commit.op_class_0::SimdFloatMultAcc            0      0.00%     56.85% # Class of committed instruction
system.cpu0.commit.op_class_0::SimdFloatSqrt            0      0.00%     56.85% # Class of committed instruction
system.cpu0.commit.op_class_0::SimdReduceAdd            0      0.00%     56.85% # Class of committed instruction
system.cpu0.commit.op_class_0::SimdReduceAlu            0      0.00%     56.85% # Class of committed instruction
system.cpu0.commit.op_class_0::SimdReduceCmp            0      0.00%     56.85% # Class of committed instruction
system.cpu0.commit.op_class_0::SimdFloatReduceAdd            0      0.00%     56.85% # Class of committed instruction
system.cpu0.commit.op_class_0::SimdFloatReduceCmp            0      0.00%     56.85% # Class of committed instruction
system.cpu0.commit.op_class_0::SimdAes              0      0.00%     56.85% # Class of committed instruction
system.cpu0.commit.op_class_0::SimdAesMix            0      0.00%     56.85% # Class of committed instruction
system.cpu0.commit.op_class_0::SimdSha1Hash            0      0.00%     56.85% # Class of committed instruction
system.cpu0.commit.op_class_0::SimdSha1Hash2            0      0.00%     56.85% # Class of committed instruction
system.cpu0.commit.op_class_0::SimdSha256Hash            0      0.00%     56.85% # Class of committed instruction
system.cpu0.commit.op_class_0::SimdSha256Hash2            0      0.00%     56.85% # Class of committed instruction
system.cpu0.commit.op_class_0::SimdShaSigma2            0      0.00%     56.85% # Class of committed instruction
system.cpu0.commit.op_class_0::SimdShaSigma3            0      0.00%     56.85% # Class of committed instruction
system.cpu0.commit.op_class_0::SimdPredAlu            0      0.00%     56.85% # Class of committed instruction
system.cpu0.commit.op_class_0::MemRead      191163345     30.60%     87.45% # Class of committed instruction
system.cpu0.commit.op_class_0::MemWrite      78390570     12.55%    100.00% # Class of committed instruction
system.cpu0.commit.op_class_0::FloatMemRead            8      0.00%    100.00% # Class of committed instruction
system.cpu0.commit.op_class_0::FloatMemWrite           20      0.00%    100.00% # Class of committed instruction
system.cpu0.commit.op_class_0::IprAccess            0      0.00%    100.00% # Class of committed instruction
system.cpu0.commit.op_class_0::InstPrefetch            0      0.00%    100.00% # Class of committed instruction
system.cpu0.commit.op_class_0::total        624636031                       # Class of committed instruction
system.cpu0.commit.refs                     269553943                       # Number of memory references committed
system.cpu0.commit.swp_count                        0                       # Number of s/w prefetches committed
system.cpu0.commit.vec_insts                        0                       # Number of committed Vector instructions.
system.cpu0.committedInsts                  623616531                       # Number of Instructions Simulated
system.cpu0.committedOps                    624636031                       # Number of Ops (including micro ops) Simulated
system.cpu0.cpi                              2.187984                       # CPI: Cycles Per Instruction
system.cpu0.cpi_total                        2.187984                       # CPI: Total CPI of All Threads
system.cpu0.decode.BlockedCycles            245968785                       # Number of cycles decode is blocked
system.cpu0.decode.BranchMispred              3182948                       # Number of times decode detected a branch misprediction
system.cpu0.decode.BranchResolved            83901639                       # Number of times decode resolved a branch
system.cpu0.decode.DecodedInsts             724609801                       # Number of instructions handled by decode
system.cpu0.decode.IdleCycles               405926723                       # Number of cycles decode is idle
system.cpu0.decode.RunCycles                504259344                       # Number of cycles decode is running
system.cpu0.decode.SquashCycles               5587920                       # Number of cycles decode is squashing
system.cpu0.decode.SquashedInsts             10023546                       # Number of squashed instructions handled by decode
system.cpu0.decode.UnblockCycles              4601475                       # Number of cycles decode is unblocking
system.cpu0.dtb.accesses                            0                       # DTB accesses
system.cpu0.dtb.hits                                0                       # DTB hits
system.cpu0.dtb.misses                              0                       # DTB misses
system.cpu0.dtb.read_accesses                       0                       # DTB read accesses
system.cpu0.dtb.read_hits                           0                       # DTB read hits
system.cpu0.dtb.read_misses                         0                       # DTB read misses
system.cpu0.dtb.write_accesses                      0                       # DTB write accesses
system.cpu0.dtb.write_hits                          0                       # DTB write hits
system.cpu0.dtb.write_misses                        0                       # DTB write misses
system.cpu0.fetch.Branches                  171745569                       # Number of branches that fetch encountered
system.cpu0.fetch.CacheLines                129190689                       # Number of cache lines fetched
system.cpu0.fetch.Cycles                    749346398                       # Number of cycles fetch has run and was not squashing or blocked
system.cpu0.fetch.IcacheSquashes              2971429                       # Number of outstanding Icache misses that were squashed
system.cpu0.fetch.IcacheWaitRetryStallCycles           73                       # Number of stall cycles due to full MSHR
system.cpu0.fetch.Insts                     744960621                       # Number of instructions fetch has processed
system.cpu0.fetch.MiscStallCycles                 231                       # Number of cycles fetch has spent waiting on interrupts, or bad addresses, or out of MSHRs
system.cpu0.fetch.PendingTrapStallCycles          655                       # Number of stall cycles due to pending traps
system.cpu0.fetch.SquashCycles               17524550                       # Number of cycles fetch has spent squashing
system.cpu0.fetch.branchRate                 0.125870                       # Number of branch fetches per cycle
system.cpu0.fetch.icacheStallCycles         408234615                       # Number of cycles fetch is stalled on an Icache miss
system.cpu0.fetch.predictedBranches         100190425                       # Number of branches that fetch has predicted taken
system.cpu0.fetch.rate                       0.545973                       # Number of inst fetches per cycle
system.cpu0.fetch.rateDist::samples        1166344247                       # Number of instructions fetched each cycle (Total)
system.cpu0.fetch.rateDist::mean             0.639589                       # Number of instructions fetched each cycle (Total)
system.cpu0.fetch.rateDist::stdev            0.878767                       # Number of instructions fetched each cycle (Total)
system.cpu0.fetch.rateDist::underflows              0      0.00%      0.00% # Number of instructions fetched each cycle (Total)
system.cpu0.fetch.rateDist::0               629034873     53.93%     53.93% # Number of instructions fetched each cycle (Total)
system.cpu0.fetch.rateDist::1               402003116     34.47%     88.40% # Number of instructions fetched each cycle (Total)
system.cpu0.fetch.rateDist::2                83528661      7.16%     95.56% # Number of instructions fetched each cycle (Total)
system.cpu0.fetch.rateDist::3                38931965      3.34%     98.90% # Number of instructions fetched each cycle (Total)
system.cpu0.fetch.rateDist::4                 6624057      0.57%     99.47% # Number of instructions fetched each cycle (Total)
system.cpu0.fetch.rateDist::5                 4726692      0.41%     99.87% # Number of instructions fetched each cycle (Total)
system.cpu0.fetch.rateDist::6                  472530      0.04%     99.91% # Number of instructions fetched each cycle (Total)
system.cpu0.fetch.rateDist::7                 1019379      0.09%    100.00% # Number of instructions fetched each cycle (Total)
system.cpu0.fetch.rateDist::8                    2974      0.00%    100.00% # Number of instructions fetched each cycle (Total)
system.cpu0.fetch.rateDist::overflows               0      0.00%    100.00% # Number of instructions fetched each cycle (Total)
system.cpu0.fetch.rateDist::min_value               0                       # Number of instructions fetched each cycle (Total)
system.cpu0.fetch.rateDist::max_value               8                       # Number of instructions fetched each cycle (Total)
system.cpu0.fetch.rateDist::total          1166344247                       # Number of instructions fetched each cycle (Total)
system.cpu0.fp_regfile_reads                       44                       # number of floating regfile reads
system.cpu0.fp_regfile_writes                      23                       # number of floating regfile writes
system.cpu0.idleCycles                      198118781                       # Total number of cycles that the CPU has spent unscheduled due to idling
system.cpu0.iew.branchMispredicts             5651071                       # Number of branch mispredicts detected at execute
system.cpu0.iew.exec_branches               161641820                       # Number of branches executed
system.cpu0.iew.exec_nop                            0                       # number of nop insts executed
system.cpu0.iew.exec_rate                    0.513990                       # Inst execution rate
system.cpu0.iew.exec_refs                   317371854                       # number of memory reference insts executed
system.cpu0.iew.exec_stores                  96350419                       # Number of stores executed
system.cpu0.iew.exec_swp                            0                       # number of swp insts executed
system.cpu0.iew.iewBlockCycles              178671987                       # Number of cycles IEW is blocking
system.cpu0.iew.iewDispLoadInsts            220706389                       # Number of dispatched load instructions
system.cpu0.iew.iewDispNonSpecInsts           1021173                       # Number of dispatched non-speculative instructions
system.cpu0.iew.iewDispSquashedInsts          2559761                       # Number of squashed instructions skipped by dispatch
system.cpu0.iew.iewDispStoreInsts            99625557                       # Number of dispatched store instructions
system.cpu0.iew.iewDispatchedInsts          711811914                       # Number of instructions dispatched to IQ
system.cpu0.iew.iewExecLoadInsts            221021435                       # Number of load instructions executed
system.cpu0.iew.iewExecSquashedInsts          4505619                       # Number of squashed instructions skipped in execute
system.cpu0.iew.iewExecutedInsts            701320060                       # Number of executed instructions
system.cpu0.iew.iewIQFullEvents                801785                       # Number of times the IQ has become full, causing a stall
system.cpu0.iew.iewIdleCycles                       0                       # Number of cycles IEW is idle
system.cpu0.iew.iewLSQFullEvents             10858234                       # Number of times the LSQ has become full, causing a stall
system.cpu0.iew.iewSquashCycles               5587920                       # Number of cycles IEW is squashing
system.cpu0.iew.iewUnblockCycles             13020060                       # Number of cycles IEW is unblocking
system.cpu0.iew.lsq.thread0.blockedLoads            0                       # Number of blocked loads due to partial load-store forwarding
system.cpu0.iew.lsq.thread0.cacheBlocked       283546                       # Number of times an access to memory failed due to the cache being blocked
system.cpu0.iew.lsq.thread0.forwLoads        15910248                       # Number of loads that had data forwarded from stores
system.cpu0.iew.lsq.thread0.ignoredResponses        10092                       # Number of memory responses ignored because the instruction is squashed
system.cpu0.iew.lsq.thread0.invAddrLoads            0                       # Number of loads ignored due to an invalid address
system.cpu0.iew.lsq.thread0.invAddrSwpfs            0                       # Number of software prefetches ignored due to an invalid address
system.cpu0.iew.lsq.thread0.memOrderViolation        10528                       # Number of memory ordering violations
system.cpu0.iew.lsq.thread0.rescheduledLoads      4291776                       # Number of loads that were rescheduled
system.cpu0.iew.lsq.thread0.squashedLoads     30561247                       # Number of loads squashed
system.cpu0.iew.lsq.thread0.squashedStores     20216745                       # Number of stores squashed
system.cpu0.iew.memOrderViolationEvents         10528                       # Number of memory order violations
system.cpu0.iew.predictedNotTakenIncorrect       693512                       # Number of branches that were predicted not taken incorrectly
system.cpu0.iew.predictedTakenIncorrect       4957559                       # Number of branches that were predicted taken incorrectly
system.cpu0.iew.wb_consumers                305450482                       # num instructions consuming a value
system.cpu0.iew.wb_count                    692901325                       # cumulative count of insts written-back
system.cpu0.iew.wb_fanout                    0.839451                       # average fanout of values written-back
system.cpu0.iew.wb_producers                256410690                       # num instructions producing a value
system.cpu0.iew.wb_rate                      0.507820                       # insts written-back per cycle
system.cpu0.iew.wb_sent                     692972716                       # cumulative count of insts sent to commit
system.cpu0.int_regfile_reads               864820795                       # number of integer regfile reads
system.cpu0.int_regfile_writes              441432728                       # number of integer regfile writes
system.cpu0.ipc                              0.457042                       # IPC: Instructions Per Cycle
system.cpu0.ipc_total                        0.457042                       # IPC: Total IPC of All Threads
system.cpu0.iq.FU_type_0::No_OpClass          2038558      0.29%      0.29% # Type of FU issued
system.cpu0.iq.FU_type_0::IntAlu            378797260     53.67%     53.96% # Type of FU issued
system.cpu0.iq.FU_type_0::IntMult             4405344      0.62%     54.58% # Type of FU issued
system.cpu0.iq.FU_type_0::IntDiv              1542752      0.22%     54.80% # Type of FU issued
system.cpu0.iq.FU_type_0::FloatAdd                  0      0.00%     54.80% # Type of FU issued
system.cpu0.iq.FU_type_0::FloatCmp                  4      0.00%     54.80% # Type of FU issued
system.cpu0.iq.FU_type_0::FloatCvt                 12      0.00%     54.80% # Type of FU issued
system.cpu0.iq.FU_type_0::FloatMult                 0      0.00%     54.80% # Type of FU issued
system.cpu0.iq.FU_type_0::FloatMultAcc              0      0.00%     54.80% # Type of FU issued
system.cpu0.iq.FU_type_0::FloatDiv                  2      0.00%     54.80% # Type of FU issued
system.cpu0.iq.FU_type_0::FloatMisc                 4      0.00%     54.80% # Type of FU issued
system.cpu0.iq.FU_type_0::FloatSqrt                 0      0.00%     54.80% # Type of FU issued
system.cpu0.iq.FU_type_0::SimdAdd                   0      0.00%     54.80% # Type of FU issued
system.cpu0.iq.FU_type_0::SimdAddAcc                0      0.00%     54.80% # Type of FU issued
system.cpu0.iq.FU_type_0::SimdAlu                   0      0.00%     54.80% # Type of FU issued
system.cpu0.iq.FU_type_0::SimdCmp                   0      0.00%     54.80% # Type of FU issued
system.cpu0.iq.FU_type_0::SimdCvt                   0      0.00%     54.80% # Type of FU issued
system.cpu0.iq.FU_type_0::SimdMisc                  0      0.00%     54.80% # Type of FU issued
system.cpu0.iq.FU_type_0::SimdMult                  0      0.00%     54.80% # Type of FU issued
system.cpu0.iq.FU_type_0::SimdMultAcc               0      0.00%     54.80% # Type of FU issued
system.cpu0.iq.FU_type_0::SimdShift                 0      0.00%     54.80% # Type of FU issued
system.cpu0.iq.FU_type_0::SimdShiftAcc              0      0.00%     54.80% # Type of FU issued
system.cpu0.iq.FU_type_0::SimdDiv                   0      0.00%     54.80% # Type of FU issued
system.cpu0.iq.FU_type_0::SimdSqrt                  0      0.00%     54.80% # Type of FU issued
system.cpu0.iq.FU_type_0::SimdFloatAdd              0      0.00%     54.80% # Type of FU issued
system.cpu0.iq.FU_type_0::SimdFloatAlu              0      0.00%     54.80% # Type of FU issued
system.cpu0.iq.FU_type_0::SimdFloatCmp              0      0.00%     54.80% # Type of FU issued
system.cpu0.iq.FU_type_0::SimdFloatCvt              0      0.00%     54.80% # Type of FU issued
system.cpu0.iq.FU_type_0::SimdFloatDiv              0      0.00%     54.80% # Type of FU issued
system.cpu0.iq.FU_type_0::SimdFloatMisc             0      0.00%     54.80% # Type of FU issued
system.cpu0.iq.FU_type_0::SimdFloatMult             0      0.00%     54.80% # Type of FU issued
system.cpu0.iq.FU_type_0::SimdFloatMultAcc            0      0.00%     54.80% # Type of FU issued
system.cpu0.iq.FU_type_0::SimdFloatSqrt             0      0.00%     54.80% # Type of FU issued
system.cpu0.iq.FU_type_0::SimdReduceAdd             0      0.00%     54.80% # Type of FU issued
system.cpu0.iq.FU_type_0::SimdReduceAlu             0      0.00%     54.80% # Type of FU issued
system.cpu0.iq.FU_type_0::SimdReduceCmp             0      0.00%     54.80% # Type of FU issued
system.cpu0.iq.FU_type_0::SimdFloatReduceAdd            0      0.00%     54.80% # Type of FU issued
system.cpu0.iq.FU_type_0::SimdFloatReduceCmp            0      0.00%     54.80% # Type of FU issued
system.cpu0.iq.FU_type_0::SimdAes                   0      0.00%     54.80% # Type of FU issued
system.cpu0.iq.FU_type_0::SimdAesMix                0      0.00%     54.80% # Type of FU issued
system.cpu0.iq.FU_type_0::SimdSha1Hash              0      0.00%     54.80% # Type of FU issued
system.cpu0.iq.FU_type_0::SimdSha1Hash2             0      0.00%     54.80% # Type of FU issued
system.cpu0.iq.FU_type_0::SimdSha256Hash            0      0.00%     54.80% # Type of FU issued
system.cpu0.iq.FU_type_0::SimdSha256Hash2            0      0.00%     54.80% # Type of FU issued
system.cpu0.iq.FU_type_0::SimdShaSigma2             0      0.00%     54.80% # Type of FU issued
system.cpu0.iq.FU_type_0::SimdShaSigma3             0      0.00%     54.80% # Type of FU issued
system.cpu0.iq.FU_type_0::SimdPredAlu               0      0.00%     54.80% # Type of FU issued
system.cpu0.iq.FU_type_0::MemRead           223226854     31.63%     86.43% # Type of FU issued
system.cpu0.iq.FU_type_0::MemWrite           95814860     13.57%    100.00% # Type of FU issued
system.cpu0.iq.FU_type_0::FloatMemRead             10      0.00%    100.00% # Type of FU issued
system.cpu0.iq.FU_type_0::FloatMemWrite            20      0.00%    100.00% # Type of FU issued
system.cpu0.iq.FU_type_0::IprAccess                 0      0.00%    100.00% # Type of FU issued
system.cpu0.iq.FU_type_0::InstPrefetch              0      0.00%    100.00% # Type of FU issued
system.cpu0.iq.FU_type_0::total             705825680                       # Type of FU issued
system.cpu0.iq.fp_alu_accesses                     56                       # Number of floating point alu accesses
system.cpu0.iq.fp_inst_queue_reads                108                       # Number of floating instruction queue reads
system.cpu0.iq.fp_inst_queue_wakeup_accesses           51                       # Number of floating instruction queue wakeup accesses
system.cpu0.iq.fp_inst_queue_writes                54                       # Number of floating instruction queue writes
system.cpu0.iq.fu_busy_cnt                    2525904                       # FU busy when requested
system.cpu0.iq.fu_busy_rate                  0.003579                       # FU busy rate (busy events/executed inst)
system.cpu0.iq.fu_full::No_OpClass                  0      0.00%      0.00% # attempts to use FU when none available
system.cpu0.iq.fu_full::IntAlu                 455338     18.03%     18.03% # attempts to use FU when none available
system.cpu0.iq.fu_full::IntMult                  1322      0.05%     18.08% # attempts to use FU when none available
system.cpu0.iq.fu_full::IntDiv                 428994     16.98%     35.06% # attempts to use FU when none available
system.cpu0.iq.fu_full::FloatAdd                    0      0.00%     35.06% # attempts to use FU when none available
system.cpu0.iq.fu_full::FloatCmp                    0      0.00%     35.06% # attempts to use FU when none available
system.cpu0.iq.fu_full::FloatCvt                    0      0.00%     35.06% # attempts to use FU when none available
system.cpu0.iq.fu_full::FloatMult                   0      0.00%     35.06% # attempts to use FU when none available
system.cpu0.iq.fu_full::FloatMultAcc                0      0.00%     35.06% # attempts to use FU when none available
system.cpu0.iq.fu_full::FloatDiv                    0      0.00%     35.06% # attempts to use FU when none available
system.cpu0.iq.fu_full::FloatMisc                   0      0.00%     35.06% # attempts to use FU when none available
system.cpu0.iq.fu_full::FloatSqrt                   0      0.00%     35.06% # attempts to use FU when none available
system.cpu0.iq.fu_full::SimdAdd                     0      0.00%     35.06% # attempts to use FU when none available
system.cpu0.iq.fu_full::SimdAddAcc                  0      0.00%     35.06% # attempts to use FU when none available
system.cpu0.iq.fu_full::SimdAlu                     0      0.00%     35.06% # attempts to use FU when none available
system.cpu0.iq.fu_full::SimdCmp                     0      0.00%     35.06% # attempts to use FU when none available
system.cpu0.iq.fu_full::SimdCvt                     0      0.00%     35.06% # attempts to use FU when none available
system.cpu0.iq.fu_full::SimdMisc                    0      0.00%     35.06% # attempts to use FU when none available
system.cpu0.iq.fu_full::SimdMult                    0      0.00%     35.06% # attempts to use FU when none available
system.cpu0.iq.fu_full::SimdMultAcc                 0      0.00%     35.06% # attempts to use FU when none available
system.cpu0.iq.fu_full::SimdShift                   0      0.00%     35.06% # attempts to use FU when none available
system.cpu0.iq.fu_full::SimdShiftAcc                0      0.00%     35.06% # attempts to use FU when none available
system.cpu0.iq.fu_full::SimdDiv                     0      0.00%     35.06% # attempts to use FU when none available
system.cpu0.iq.fu_full::SimdSqrt                    0      0.00%     35.06% # attempts to use FU when none available
system.cpu0.iq.fu_full::SimdFloatAdd                0      0.00%     35.06% # attempts to use FU when none available
system.cpu0.iq.fu_full::SimdFloatAlu                0      0.00%     35.06% # attempts to use FU when none available
system.cpu0.iq.fu_full::SimdFloatCmp                0      0.00%     35.06% # attempts to use FU when none available
system.cpu0.iq.fu_full::SimdFloatCvt                0      0.00%     35.06% # attempts to use FU when none available
system.cpu0.iq.fu_full::SimdFloatDiv                0      0.00%     35.06% # attempts to use FU when none available
system.cpu0.iq.fu_full::SimdFloatMisc               0      0.00%     35.06% # attempts to use FU when none available
system.cpu0.iq.fu_full::SimdFloatMult               0      0.00%     35.06% # attempts to use FU when none available
system.cpu0.iq.fu_full::SimdFloatMultAcc            0      0.00%     35.06% # attempts to use FU when none available
system.cpu0.iq.fu_full::SimdFloatSqrt               0      0.00%     35.06% # attempts to use FU when none available
system.cpu0.iq.fu_full::SimdReduceAdd               0      0.00%     35.06% # attempts to use FU when none available
system.cpu0.iq.fu_full::SimdReduceAlu               0      0.00%     35.06% # attempts to use FU when none available
system.cpu0.iq.fu_full::SimdReduceCmp               0      0.00%     35.06% # attempts to use FU when none available
system.cpu0.iq.fu_full::SimdFloatReduceAdd            0      0.00%     35.06% # attempts to use FU when none available
system.cpu0.iq.fu_full::SimdFloatReduceCmp            0      0.00%     35.06% # attempts to use FU when none available
system.cpu0.iq.fu_full::SimdAes                     0      0.00%     35.06% # attempts to use FU when none available
system.cpu0.iq.fu_full::SimdAesMix                  0      0.00%     35.06% # attempts to use FU when none available
system.cpu0.iq.fu_full::SimdSha1Hash                0      0.00%     35.06% # attempts to use FU when none available
system.cpu0.iq.fu_full::SimdSha1Hash2               0      0.00%     35.06% # attempts to use FU when none available
system.cpu0.iq.fu_full::SimdSha256Hash              0      0.00%     35.06% # attempts to use FU when none available
system.cpu0.iq.fu_full::SimdSha256Hash2             0      0.00%     35.06% # attempts to use FU when none available
system.cpu0.iq.fu_full::SimdShaSigma2               0      0.00%     35.06% # attempts to use FU when none available
system.cpu0.iq.fu_full::SimdShaSigma3               0      0.00%     35.06% # attempts to use FU when none available
system.cpu0.iq.fu_full::SimdPredAlu                 0      0.00%     35.06% # attempts to use FU when none available
system.cpu0.iq.fu_full::MemRead               1381824     54.71%     89.77% # attempts to use FU when none available
system.cpu0.iq.fu_full::MemWrite               258422     10.23%    100.00% # attempts to use FU when none available
system.cpu0.iq.fu_full::FloatMemRead                0      0.00%    100.00% # attempts to use FU when none available
system.cpu0.iq.fu_full::FloatMemWrite               4      0.00%    100.00% # attempts to use FU when none available
system.cpu0.iq.fu_full::IprAccess                   0      0.00%    100.00% # attempts to use FU when none available
system.cpu0.iq.fu_full::InstPrefetch                0      0.00%    100.00% # attempts to use FU when none available
system.cpu0.iq.int_alu_accesses             706312970                       # Number of integer alu accesses
system.cpu0.iq.int_inst_queue_reads        2580707470                       # Number of integer instruction queue reads
system.cpu0.iq.int_inst_queue_wakeup_accesses    692901274                       # Number of integer instruction queue wakeup accesses
system.cpu0.iq.int_inst_queue_writes        798997428                       # Number of integer instruction queue writes
system.cpu0.iq.iqInstsAdded                 708752820                       # Number of instructions added to the IQ (excludes non-spec)
system.cpu0.iq.iqInstsIssued                705825680                       # Number of instructions issued
system.cpu0.iq.iqNonSpecInstsAdded            3059094                       # Number of non-speculative instructions added to the IQ
system.cpu0.iq.iqSquashedInstsExamined       87175798                       # Number of squashed instructions iterated over during squash; mainly for profiling
system.cpu0.iq.iqSquashedInstsIssued           186068                       # Number of squashed instructions issued
system.cpu0.iq.iqSquashedNonSpecRemoved           575                       # Number of squashed non-spec instructions that were removed
system.cpu0.iq.iqSquashedOperandsExamined     21288976                       # Number of squashed operands that are examined and possibly removed from graph
system.cpu0.iq.issued_per_cycle::samples   1166344247                       # Number of insts issued each cycle
system.cpu0.iq.issued_per_cycle::mean        0.605161                       # Number of insts issued each cycle
system.cpu0.iq.issued_per_cycle::stdev       0.849725                       # Number of insts issued each cycle
system.cpu0.iq.issued_per_cycle::underflows            0      0.00%      0.00% # Number of insts issued each cycle
system.cpu0.iq.issued_per_cycle::0          666156660     57.11%     57.11% # Number of insts issued each cycle
system.cpu0.iq.issued_per_cycle::1          344030786     29.50%     86.61% # Number of insts issued each cycle
system.cpu0.iq.issued_per_cycle::2          123721753     10.61%     97.22% # Number of insts issued each cycle
system.cpu0.iq.issued_per_cycle::3           21573082      1.85%     99.07% # Number of insts issued each cycle
system.cpu0.iq.issued_per_cycle::4            7358464      0.63%     99.70% # Number of insts issued each cycle
system.cpu0.iq.issued_per_cycle::5            1388243      0.12%     99.82% # Number of insts issued each cycle
system.cpu0.iq.issued_per_cycle::6            1679245      0.14%     99.96% # Number of insts issued each cycle
system.cpu0.iq.issued_per_cycle::7             306511      0.03%     99.99% # Number of insts issued each cycle
system.cpu0.iq.issued_per_cycle::8             129503      0.01%    100.00% # Number of insts issued each cycle
system.cpu0.iq.issued_per_cycle::overflows            0      0.00%    100.00% # Number of insts issued each cycle
system.cpu0.iq.issued_per_cycle::min_value            0                       # Number of insts issued each cycle
system.cpu0.iq.issued_per_cycle::max_value            8                       # Number of insts issued each cycle
system.cpu0.iq.issued_per_cycle::total     1166344247                       # Number of insts issued each cycle
system.cpu0.iq.rate                          0.517292                       # Inst issue rate
system.cpu0.iq.vec_alu_accesses                     0                       # Number of vector alu accesses
system.cpu0.iq.vec_inst_queue_reads                 0                       # Number of vector instruction queue reads
system.cpu0.iq.vec_inst_queue_wakeup_accesses            0                       # Number of vector instruction queue wakeup accesses
system.cpu0.iq.vec_inst_queue_writes                0                       # Number of vector instruction queue writes
system.cpu0.itb.accesses                            0                       # DTB accesses
system.cpu0.itb.hits                                0                       # DTB hits
system.cpu0.itb.misses                              0                       # DTB misses
system.cpu0.itb.read_accesses                       0                       # DTB read accesses
system.cpu0.itb.read_hits                           0                       # DTB read hits
system.cpu0.itb.read_misses                         0                       # DTB read misses
system.cpu0.itb.write_accesses                      0                       # DTB write accesses
system.cpu0.itb.write_hits                          0                       # DTB write hits
system.cpu0.itb.write_misses                        0                       # DTB write misses
system.cpu0.memDep0.conflictingLoads         12471376                       # Number of conflicting loads.
system.cpu0.memDep0.conflictingStores         6679556                       # Number of conflicting stores.
system.cpu0.memDep0.insertedLoads           220706389                       # Number of loads inserted to the mem dependence unit.
system.cpu0.memDep0.insertedStores           99625557                       # Number of stores inserted to the mem dependence unit.
system.cpu0.misc_regfile_reads                    878                       # number of misc regfile reads
system.cpu0.misc_regfile_writes                    22                       # number of misc regfile writes
system.cpu0.numCycles                      1364463028                       # number of cpu cycles simulated
system.cpu0.numWorkItemsCompleted                   0                       # number of work items this cpu completed
system.cpu0.numWorkItemsStarted                     0                       # number of work items this cpu started
system.cpu0.quiesceCycles                    12721449                       # Total number of cycles that CPU has spent quiesced or waiting for an interrupt
system.cpu0.rename.BlockCycles              199775448                       # Number of cycles rename is blocking
system.cpu0.rename.CommittedMaps            399040235                       # Number of HB maps that are committed
system.cpu0.rename.IQFullEvents               7662081                       # Number of times rename has blocked due to IQ full
system.cpu0.rename.IdleCycles               412898695                       # Number of cycles rename is idle
system.cpu0.rename.LQFullEvents              20154742                       # Number of times rename has blocked due to LQ full
system.cpu0.rename.ROBFullEvents                23778                       # Number of times rename has blocked due to ROB full
system.cpu0.rename.RenameLookups            890995348                       # Number of register rename lookups that rename has made
system.cpu0.rename.RenamedInsts             720512496                       # Number of instructions processed by rename
system.cpu0.rename.RenamedOperands          461117412                       # Number of destination operands rename has renamed
system.cpu0.rename.RunCycles                501299724                       # Number of cycles rename is running
system.cpu0.rename.SQFullEvents              18625104                       # Number of times rename has blocked due to SQ full
system.cpu0.rename.SquashCycles               5587920                       # Number of cycles rename is squashing
system.cpu0.rename.UnblockCycles             46684891                       # Number of cycles rename is unblocking
system.cpu0.rename.UndoneMaps                62077109                       # Number of HB maps that are undone due to squashing
system.cpu0.rename.fp_rename_lookups               44                       # Number of floating rename lookups
system.cpu0.rename.int_rename_lookups       890995304                       # Number of integer rename lookups
system.cpu0.rename.serializeStallCycles         97569                       # count of cycles rename stalled for serializing inst
system.cpu0.rename.serializingInsts              2875                       # count of serializing insts renamed
system.cpu0.rename.skidInsts                 17834537                       # count of insts added to the skid buffer
system.cpu0.rename.tempSerializingInsts          2863                       # count of temporary serializing insts renamed
system.cpu0.rob.rob_reads                  1840644834                       # The number of ROB reads
system.cpu0.rob.rob_writes                 1438578832                       # The number of ROB writes
system.cpu0.timesIdled                       12436396                       # Number of times that the entire CPU went into an idle state and unscheduled itself
system.cpu0.workload.numSyscalls                  845                       # Number of system calls
system.cpu1.branchPred.BTBCorrect                   0                       # Number of correct BTB predictions (this stat may not work properly.
system.cpu1.branchPred.BTBHitPct            74.087093                       # BTB Hit Percentage
system.cpu1.branchPred.BTBHits                7324027                       # Number of BTB hits
system.cpu1.branchPred.BTBLookups             9885699                       # Number of BTB lookups
system.cpu1.branchPred.RASInCorrect                 0                       # Number of incorrect RAS predictions.
system.cpu1.branchPred.condIncorrect          1129497                       # Number of conditional branches incorrect
system.cpu1.branchPred.condPredicted         11367072                       # Number of conditional branches predicted
system.cpu1.branchPred.indirectHits            793113                       # Number of indirect target hits.
system.cpu1.branchPred.indirectLookups         956200                       # Number of indirect predictor lookups.
system.cpu1.branchPred.indirectMisses          163087                       # Number of indirect misses.
system.cpu1.branchPred.lookups               13750908                       # Number of BP lookups
system.cpu1.branchPred.usedRAS                      0                       # Number of times the RAS was used to get a target.
system.cpu1.branchPredindirectMispredicted        10157                       # Number of mispredicted indirect branches.
system.cpu1.commit.amos                       1017935                       # Number of atomic instructions committed
system.cpu1.commit.branchMispredicts           657396                       # The number of times a branch was mispredicted
system.cpu1.commit.branches                  10114735                       # Number of branches committed
system.cpu1.commit.bw_lim_events              2699656                       # number cycles where commit BW limit reached
system.cpu1.commit.commitNonSpecStalls        3054462                       # The number of times commit has been forced to stall to communicate backwards
system.cpu1.commit.commitSquashedInsts        9817960                       # The number of squashed insts skipped by commit
system.cpu1.commit.committedInsts            57390567                       # Number of instructions committed
system.cpu1.commit.committedOps              58408675                       # Number of ops (including micro ops) committed
system.cpu1.commit.committed_per_cycle::samples    244159403                       # Number of insts commited each cycle
system.cpu1.commit.committed_per_cycle::mean     0.239224                       # Number of insts commited each cycle
system.cpu1.commit.committed_per_cycle::stdev     1.050726                       # Number of insts commited each cycle
system.cpu1.commit.committed_per_cycle::underflows            0      0.00%      0.00% # Number of insts commited each cycle
system.cpu1.commit.committed_per_cycle::0    223138497     91.39%     91.39% # Number of insts commited each cycle
system.cpu1.commit.committed_per_cycle::1      9801425      4.01%     95.40% # Number of insts commited each cycle
system.cpu1.commit.committed_per_cycle::2      3700780      1.52%     96.92% # Number of insts commited each cycle
system.cpu1.commit.committed_per_cycle::3      1987722      0.81%     97.73% # Number of insts commited each cycle
system.cpu1.commit.committed_per_cycle::4      1350709      0.55%     98.29% # Number of insts commited each cycle
system.cpu1.commit.committed_per_cycle::5       840795      0.34%     98.63% # Number of insts commited each cycle
system.cpu1.commit.committed_per_cycle::6       440268      0.18%     98.81% # Number of insts commited each cycle
system.cpu1.commit.committed_per_cycle::7       199551      0.08%     98.89% # Number of insts commited each cycle
system.cpu1.commit.committed_per_cycle::8      2699656      1.11%    100.00% # Number of insts commited each cycle
system.cpu1.commit.committed_per_cycle::overflows            0      0.00%    100.00% # Number of insts commited each cycle
system.cpu1.commit.committed_per_cycle::min_value            0                       # Number of insts commited each cycle
system.cpu1.commit.committed_per_cycle::max_value            8                       # Number of insts commited each cycle
system.cpu1.commit.committed_per_cycle::total    244159403                       # Number of insts commited each cycle
system.cpu1.commit.fp_insts                        12                       # Number of committed floating point instructions.
system.cpu1.commit.function_calls             1442956                       # Number of function calls committed.
system.cpu1.commit.int_insts                 55972762                       # Number of committed integer instructions.
system.cpu1.commit.loads                     14460851                       # Number of loads committed
system.cpu1.commit.membars                    2035986                       # Number of memory barriers committed
system.cpu1.commit.op_class_0::No_OpClass      2035986      3.49%      3.49% # Class of committed instruction
system.cpu1.commit.op_class_0::IntAlu        34547388     59.15%     62.63% # Class of committed instruction
system.cpu1.commit.op_class_0::IntMult         248003      0.42%     63.06% # Class of committed instruction
system.cpu1.commit.op_class_0::IntDiv          493477      0.84%     63.90% # Class of committed instruction
system.cpu1.commit.op_class_0::FloatAdd             0      0.00%     63.90% # Class of committed instruction
system.cpu1.commit.op_class_0::FloatCmp             0      0.00%     63.90% # Class of committed instruction
system.cpu1.commit.op_class_0::FloatCvt             0      0.00%     63.90% # Class of committed instruction
system.cpu1.commit.op_class_0::FloatMult            0      0.00%     63.90% # Class of committed instruction
system.cpu1.commit.op_class_0::FloatMultAcc            0      0.00%     63.90% # Class of committed instruction
system.cpu1.commit.op_class_0::FloatDiv             0      0.00%     63.90% # Class of committed instruction
system.cpu1.commit.op_class_0::FloatMisc            0      0.00%     63.90% # Class of committed instruction
system.cpu1.commit.op_class_0::FloatSqrt            0      0.00%     63.90% # Class of committed instruction
system.cpu1.commit.op_class_0::SimdAdd              0      0.00%     63.90% # Class of committed instruction
system.cpu1.commit.op_class_0::SimdAddAcc            0      0.00%     63.90% # Class of committed instruction
system.cpu1.commit.op_class_0::SimdAlu              0      0.00%     63.90% # Class of committed instruction
system.cpu1.commit.op_class_0::SimdCmp              0      0.00%     63.90% # Class of committed instruction
system.cpu1.commit.op_class_0::SimdCvt              0      0.00%     63.90% # Class of committed instruction
system.cpu1.commit.op_class_0::SimdMisc             0      0.00%     63.90% # Class of committed instruction
system.cpu1.commit.op_class_0::SimdMult             0      0.00%     63.90% # Class of committed instruction
system.cpu1.commit.op_class_0::SimdMultAcc            0      0.00%     63.90% # Class of committed instruction
system.cpu1.commit.op_class_0::SimdShift            0      0.00%     63.90% # Class of committed instruction
system.cpu1.commit.op_class_0::SimdShiftAcc            0      0.00%     63.90% # Class of committed instruction
system.cpu1.commit.op_class_0::SimdDiv              0      0.00%     63.90% # Class of committed instruction
system.cpu1.commit.op_class_0::SimdSqrt             0      0.00%     63.90% # Class of committed instruction
system.cpu1.commit.op_class_0::SimdFloatAdd            0      0.00%     63.90% # Class of committed instruction
system.cpu1.commit.op_class_0::SimdFloatAlu            0      0.00%     63.90% # Class of committed instruction
system.cpu1.commit.op_class_0::SimdFloatCmp            0      0.00%     63.90% # Class of committed instruction
system.cpu1.commit.op_class_0::SimdFloatCvt            0      0.00%     63.90% # Class of committed instruction
system.cpu1.commit.op_class_0::SimdFloatDiv            0      0.00%     63.90% # Class of committed instruction
system.cpu1.commit.op_class_0::SimdFloatMisc            0      0.00%     63.90% # Class of committed instruction
system.cpu1.commit.op_class_0::SimdFloatMult            0      0.00%     63.90% # Class of committed instruction
system.cpu1.commit.op_class_0::SimdFloatMultAcc            0      0.00%     63.90% # Class of committed instruction
system.cpu1.commit.op_class_0::SimdFloatSqrt            0      0.00%     63.90% # Class of committed instruction
system.cpu1.commit.op_class_0::SimdReduceAdd            0      0.00%     63.90% # Class of committed instruction
system.cpu1.commit.op_class_0::SimdReduceAlu            0      0.00%     63.90% # Class of committed instruction
system.cpu1.commit.op_class_0::SimdReduceCmp            0      0.00%     63.90% # Class of committed instruction
system.cpu1.commit.op_class_0::SimdFloatReduceAdd            0      0.00%     63.90% # Class of committed instruction
system.cpu1.commit.op_class_0::SimdFloatReduceCmp            0      0.00%     63.90% # Class of committed instruction
system.cpu1.commit.op_class_0::SimdAes              0      0.00%     63.90% # Class of committed instruction
system.cpu1.commit.op_class_0::SimdAesMix            0      0.00%     63.90% # Class of committed instruction
system.cpu1.commit.op_class_0::SimdSha1Hash            0      0.00%     63.90% # Class of committed instruction
system.cpu1.commit.op_class_0::SimdSha1Hash2            0      0.00%     63.90% # Class of committed instruction
system.cpu1.commit.op_class_0::SimdSha256Hash            0      0.00%     63.90% # Class of committed instruction
system.cpu1.commit.op_class_0::SimdSha256Hash2            0      0.00%     63.90% # Class of committed instruction
system.cpu1.commit.op_class_0::SimdShaSigma2            0      0.00%     63.90% # Class of committed instruction
system.cpu1.commit.op_class_0::SimdShaSigma3            0      0.00%     63.90% # Class of committed instruction
system.cpu1.commit.op_class_0::SimdPredAlu            0      0.00%     63.90% # Class of committed instruction
system.cpu1.commit.op_class_0::MemRead       15478786     26.50%     90.40% # Class of committed instruction
system.cpu1.commit.op_class_0::MemWrite       5605023      9.60%    100.00% # Class of committed instruction
system.cpu1.commit.op_class_0::FloatMemRead            0      0.00%    100.00% # Class of committed instruction
system.cpu1.commit.op_class_0::FloatMemWrite           12      0.00%    100.00% # Class of committed instruction
system.cpu1.commit.op_class_0::IprAccess            0      0.00%    100.00% # Class of committed instruction
system.cpu1.commit.op_class_0::InstPrefetch            0      0.00%    100.00% # Class of committed instruction
system.cpu1.commit.op_class_0::total         58408675                       # Class of committed instruction
system.cpu1.commit.refs                      21083821                       # Number of memory references committed
system.cpu1.commit.swp_count                        0                       # Number of s/w prefetches committed
system.cpu1.commit.vec_insts                        0                       # Number of committed Vector instructions.
system.cpu1.committedInsts                   57390567                       # Number of Instructions Simulated
system.cpu1.committedOps                     58408675                       # Number of Ops (including micro ops) Simulated
system.cpu1.cpi                              4.296389                       # CPI: Cycles Per Instruction
system.cpu1.cpi_total                        4.296389                       # CPI: Total CPI of All Threads
system.cpu1.decode.BlockedCycles            201620528                       # Number of cycles decode is blocked
system.cpu1.decode.BranchMispred               478732                       # Number of times decode detected a branch misprediction
system.cpu1.decode.BranchResolved             6700302                       # Number of times decode resolved a branch
system.cpu1.decode.DecodedInsts              72115029                       # Number of instructions handled by decode
system.cpu1.decode.IdleCycles                 9438237                       # Number of cycles decode is idle
system.cpu1.decode.RunCycles                 31569862                       # Number of cycles decode is running
system.cpu1.decode.SquashCycles                657720                       # Number of cycles decode is squashing
system.cpu1.decode.SquashedInsts               974416                       # Number of squashed instructions handled by decode
system.cpu1.decode.UnblockCycles              2547377                       # Number of cycles decode is unblocking
system.cpu1.dtb.accesses                            0                       # DTB accesses
system.cpu1.dtb.hits                                0                       # DTB hits
system.cpu1.dtb.misses                              0                       # DTB misses
system.cpu1.dtb.read_accesses                       0                       # DTB read accesses
system.cpu1.dtb.read_hits                           0                       # DTB read hits
system.cpu1.dtb.read_misses                         0                       # DTB read misses
system.cpu1.dtb.write_accesses                      0                       # DTB write accesses
system.cpu1.dtb.write_hits                          0                       # DTB write hits
system.cpu1.dtb.write_misses                        0                       # DTB write misses
system.cpu1.fetch.Branches                   13750908                       # Number of branches that fetch encountered
system.cpu1.fetch.CacheLines                  9941374                       # Number of cache lines fetched
system.cpu1.fetch.Cycles                    233530729                       # Number of cycles fetch has run and was not squashing or blocked
system.cpu1.fetch.IcacheSquashes                94770                       # Number of outstanding Icache misses that were squashed
system.cpu1.fetch.Insts                      78338491                       # Number of instructions fetch has processed
system.cpu1.fetch.MiscStallCycles                   1                       # Number of cycles fetch has spent waiting on interrupts, or bad addresses, or out of MSHRs
system.cpu1.fetch.SquashCycles                2259642                       # Number of cycles fetch has spent squashing
system.cpu1.fetch.branchRate                 0.055768                       # Number of branch fetches per cycle
system.cpu1.fetch.icacheStallCycles          11173173                       # Number of cycles fetch is stalled on an Icache miss
system.cpu1.fetch.predictedBranches           8117140                       # Number of branches that fetch has predicted taken
system.cpu1.fetch.rate                       0.317710                       # Number of inst fetches per cycle
system.cpu1.fetch.rateDist::samples         245833724                       # Number of instructions fetched each cycle (Total)
system.cpu1.fetch.rateDist::mean             0.324494                       # Number of instructions fetched each cycle (Total)
system.cpu1.fetch.rateDist::stdev            0.790047                       # Number of instructions fetched each cycle (Total)
system.cpu1.fetch.rateDist::underflows              0      0.00%      0.00% # Number of instructions fetched each cycle (Total)
system.cpu1.fetch.rateDist::0               195939373     79.70%     79.70% # Number of instructions fetched each cycle (Total)
system.cpu1.fetch.rateDist::1                31843958     12.95%     92.66% # Number of instructions fetched each cycle (Total)
system.cpu1.fetch.rateDist::2                11448276      4.66%     97.31% # Number of instructions fetched each cycle (Total)
system.cpu1.fetch.rateDist::3                 3727738      1.52%     98.83% # Number of instructions fetched each cycle (Total)
system.cpu1.fetch.rateDist::4                 1022666      0.42%     99.25% # Number of instructions fetched each cycle (Total)
system.cpu1.fetch.rateDist::5                 1353510      0.55%     99.80% # Number of instructions fetched each cycle (Total)
system.cpu1.fetch.rateDist::6                  497976      0.20%    100.00% # Number of instructions fetched each cycle (Total)
system.cpu1.fetch.rateDist::7                       7      0.00%    100.00% # Number of instructions fetched each cycle (Total)
system.cpu1.fetch.rateDist::8                     220      0.00%    100.00% # Number of instructions fetched each cycle (Total)
system.cpu1.fetch.rateDist::overflows               0      0.00%    100.00% # Number of instructions fetched each cycle (Total)
system.cpu1.fetch.rateDist::min_value               0                       # Number of instructions fetched each cycle (Total)
system.cpu1.fetch.rateDist::max_value               8                       # Number of instructions fetched each cycle (Total)
system.cpu1.fetch.rateDist::total           245833724                       # Number of instructions fetched each cycle (Total)
system.cpu1.fp_regfile_reads                       12                       # number of floating regfile reads
system.cpu1.idleCycles                         738492                       # Total number of cycles that the CPU has spent unscheduled due to idling
system.cpu1.iew.branchMispredicts              696763                       # Number of branch mispredicts detected at execute
system.cpu1.iew.exec_branches                11307505                       # Number of branches executed
system.cpu1.iew.exec_nop                            0                       # number of nop insts executed
system.cpu1.iew.exec_rate                    0.257369                       # Inst execution rate
system.cpu1.iew.exec_refs                    22538773                       # number of memory reference insts executed
system.cpu1.iew.exec_stores                   6806834                       # Number of stores executed
system.cpu1.iew.exec_swp                            0                       # number of swp insts executed
system.cpu1.iew.iewBlockCycles              167154315                       # Number of cycles IEW is blocking
system.cpu1.iew.iewDispLoadInsts             16577511                       # Number of dispatched load instructions
system.cpu1.iew.iewDispNonSpecInsts           1188201                       # Number of dispatched non-speculative instructions
system.cpu1.iew.iewDispSquashedInsts           795117                       # Number of squashed instructions skipped by dispatch
system.cpu1.iew.iewDispStoreInsts             7542555                       # Number of dispatched store instructions
system.cpu1.iew.iewDispatchedInsts           68216841                       # Number of instructions dispatched to IQ
system.cpu1.iew.iewExecLoadInsts             15731939                       # Number of load instructions executed
system.cpu1.iew.iewExecSquashedInsts           655228                       # Number of squashed instructions skipped in execute
system.cpu1.iew.iewExecutedInsts             63460108                       # Number of executed instructions
system.cpu1.iew.iewIQFullEvents                987041                       # Number of times the IQ has become full, causing a stall
system.cpu1.iew.iewIdleCycles                       0                       # Number of cycles IEW is idle
system.cpu1.iew.iewLSQFullEvents              4095815                       # Number of times the LSQ has become full, causing a stall
system.cpu1.iew.iewSquashCycles                657720                       # Number of cycles IEW is squashing
system.cpu1.iew.iewUnblockCycles              6393963                       # Number of cycles IEW is unblocking
system.cpu1.iew.lsq.thread0.blockedLoads            0                       # Number of blocked loads due to partial load-store forwarding
system.cpu1.iew.lsq.thread0.cacheBlocked        35724                       # Number of times an access to memory failed due to the cache being blocked
system.cpu1.iew.lsq.thread0.forwLoads          744276                       # Number of loads that had data forwarded from stores
system.cpu1.iew.lsq.thread0.ignoredResponses         5535                       # Number of memory responses ignored because the instruction is squashed
system.cpu1.iew.lsq.thread0.invAddrLoads            0                       # Number of loads ignored due to an invalid address
system.cpu1.iew.lsq.thread0.invAddrSwpfs            0                       # Number of software prefetches ignored due to an invalid address
system.cpu1.iew.lsq.thread0.memOrderViolation          344                       # Number of memory ordering violations
system.cpu1.iew.lsq.thread0.rescheduledLoads          505                       # Number of loads that were rescheduled
system.cpu1.iew.lsq.thread0.squashedLoads      2116660                       # Number of loads squashed
system.cpu1.iew.lsq.thread0.squashedStores       919585                       # Number of stores squashed
system.cpu1.iew.memOrderViolationEvents           344                       # Number of memory order violations
system.cpu1.iew.predictedNotTakenIncorrect        80153                       # Number of branches that were predicted not taken incorrectly
system.cpu1.iew.predictedTakenIncorrect        616610                       # Number of branches that were predicted taken incorrectly
system.cpu1.iew.wb_consumers                 37663891                       # num instructions consuming a value
system.cpu1.iew.wb_count                     62946583                       # cumulative count of insts written-back
system.cpu1.iew.wb_fanout                    0.814716                       # average fanout of values written-back
system.cpu1.iew.wb_producers                 30685385                       # num instructions producing a value
system.cpu1.iew.wb_rate                      0.255287                       # insts written-back per cycle
system.cpu1.iew.wb_sent                      62975665                       # cumulative count of insts sent to commit
system.cpu1.int_regfile_reads                80963065                       # number of integer regfile reads
system.cpu1.int_regfile_writes               44596006                       # number of integer regfile writes
system.cpu1.ipc                              0.232754                       # IPC: Instructions Per Cycle
system.cpu1.ipc_total                        0.232754                       # IPC: Total IPC of All Threads
system.cpu1.iq.FU_type_0::No_OpClass          2036086      3.18%      3.18% # Type of FU issued
system.cpu1.iq.FU_type_0::IntAlu             38661393     60.30%     63.48% # Type of FU issued
system.cpu1.iq.FU_type_0::IntMult              248028      0.39%     63.86% # Type of FU issued
system.cpu1.iq.FU_type_0::IntDiv               493520      0.77%     64.63% # Type of FU issued
system.cpu1.iq.FU_type_0::FloatAdd                  0      0.00%     64.63% # Type of FU issued
system.cpu1.iq.FU_type_0::FloatCmp                  0      0.00%     64.63% # Type of FU issued
system.cpu1.iq.FU_type_0::FloatCvt                  0      0.00%     64.63% # Type of FU issued
system.cpu1.iq.FU_type_0::FloatMult                 0      0.00%     64.63% # Type of FU issued
system.cpu1.iq.FU_type_0::FloatMultAcc              0      0.00%     64.63% # Type of FU issued
system.cpu1.iq.FU_type_0::FloatDiv                  0      0.00%     64.63% # Type of FU issued
system.cpu1.iq.FU_type_0::FloatMisc                 0      0.00%     64.63% # Type of FU issued
system.cpu1.iq.FU_type_0::FloatSqrt                 0      0.00%     64.63% # Type of FU issued
system.cpu1.iq.FU_type_0::SimdAdd                   0      0.00%     64.63% # Type of FU issued
system.cpu1.iq.FU_type_0::SimdAddAcc                0      0.00%     64.63% # Type of FU issued
system.cpu1.iq.FU_type_0::SimdAlu                   0      0.00%     64.63% # Type of FU issued
system.cpu1.iq.FU_type_0::SimdCmp                   0      0.00%     64.63% # Type of FU issued
system.cpu1.iq.FU_type_0::SimdCvt                   0      0.00%     64.63% # Type of FU issued
system.cpu1.iq.FU_type_0::SimdMisc                  0      0.00%     64.63% # Type of FU issued
system.cpu1.iq.FU_type_0::SimdMult                  0      0.00%     64.63% # Type of FU issued
system.cpu1.iq.FU_type_0::SimdMultAcc               0      0.00%     64.63% # Type of FU issued
system.cpu1.iq.FU_type_0::SimdShift                 0      0.00%     64.63% # Type of FU issued
system.cpu1.iq.FU_type_0::SimdShiftAcc              0      0.00%     64.63% # Type of FU issued
system.cpu1.iq.FU_type_0::SimdDiv                   0      0.00%     64.63% # Type of FU issued
system.cpu1.iq.FU_type_0::SimdSqrt                  0      0.00%     64.63% # Type of FU issued
system.cpu1.iq.FU_type_0::SimdFloatAdd              0      0.00%     64.63% # Type of FU issued
system.cpu1.iq.FU_type_0::SimdFloatAlu              0      0.00%     64.63% # Type of FU issued
system.cpu1.iq.FU_type_0::SimdFloatCmp              0      0.00%     64.63% # Type of FU issued
system.cpu1.iq.FU_type_0::SimdFloatCvt              0      0.00%     64.63% # Type of FU issued
system.cpu1.iq.FU_type_0::SimdFloatDiv              0      0.00%     64.63% # Type of FU issued
system.cpu1.iq.FU_type_0::SimdFloatMisc             0      0.00%     64.63% # Type of FU issued
system.cpu1.iq.FU_type_0::SimdFloatMult             0      0.00%     64.63% # Type of FU issued
system.cpu1.iq.FU_type_0::SimdFloatMultAcc            0      0.00%     64.63% # Type of FU issued
system.cpu1.iq.FU_type_0::SimdFloatSqrt             0      0.00%     64.63% # Type of FU issued
system.cpu1.iq.FU_type_0::SimdReduceAdd             0      0.00%     64.63% # Type of FU issued
system.cpu1.iq.FU_type_0::SimdReduceAlu             0      0.00%     64.63% # Type of FU issued
system.cpu1.iq.FU_type_0::SimdReduceCmp             0      0.00%     64.63% # Type of FU issued
system.cpu1.iq.FU_type_0::SimdFloatReduceAdd            0      0.00%     64.63% # Type of FU issued
system.cpu1.iq.FU_type_0::SimdFloatReduceCmp            0      0.00%     64.63% # Type of FU issued
system.cpu1.iq.FU_type_0::SimdAes                   0      0.00%     64.63% # Type of FU issued
system.cpu1.iq.FU_type_0::SimdAesMix                0      0.00%     64.63% # Type of FU issued
system.cpu1.iq.FU_type_0::SimdSha1Hash              0      0.00%     64.63% # Type of FU issued
system.cpu1.iq.FU_type_0::SimdSha1Hash2             0      0.00%     64.63% # Type of FU issued
system.cpu1.iq.FU_type_0::SimdSha256Hash            0      0.00%     64.63% # Type of FU issued
system.cpu1.iq.FU_type_0::SimdSha256Hash2            0      0.00%     64.63% # Type of FU issued
system.cpu1.iq.FU_type_0::SimdShaSigma2             0      0.00%     64.63% # Type of FU issued
system.cpu1.iq.FU_type_0::SimdShaSigma3             0      0.00%     64.63% # Type of FU issued
system.cpu1.iq.FU_type_0::SimdPredAlu               0      0.00%     64.63% # Type of FU issued
system.cpu1.iq.FU_type_0::MemRead            16864082     26.30%     90.93% # Type of FU issued
system.cpu1.iq.FU_type_0::MemWrite            5812215      9.07%    100.00% # Type of FU issued
system.cpu1.iq.FU_type_0::FloatMemRead              0      0.00%    100.00% # Type of FU issued
system.cpu1.iq.FU_type_0::FloatMemWrite            12      0.00%    100.00% # Type of FU issued
system.cpu1.iq.FU_type_0::IprAccess                 0      0.00%    100.00% # Type of FU issued
system.cpu1.iq.FU_type_0::InstPrefetch              0      0.00%    100.00% # Type of FU issued
system.cpu1.iq.FU_type_0::total              64115336                       # Type of FU issued
system.cpu1.iq.fp_alu_accesses                     16                       # Number of floating point alu accesses
system.cpu1.iq.fp_inst_queue_reads                 28                       # Number of floating instruction queue reads
system.cpu1.iq.fp_inst_queue_wakeup_accesses           12                       # Number of floating instruction queue wakeup accesses
system.cpu1.iq.fp_inst_queue_writes                12                       # Number of floating instruction queue writes
system.cpu1.iq.fu_busy_cnt                    1965063                       # FU busy when requested
system.cpu1.iq.fu_busy_rate                  0.030649                       # FU busy rate (busy events/executed inst)
system.cpu1.iq.fu_full::No_OpClass                  0      0.00%      0.00% # attempts to use FU when none available
system.cpu1.iq.fu_full::IntAlu                 293095     14.92%     14.92% # attempts to use FU when none available
system.cpu1.iq.fu_full::IntMult                  5048      0.26%     15.17% # attempts to use FU when none available
system.cpu1.iq.fu_full::IntDiv                 413710     21.05%     36.23% # attempts to use FU when none available
system.cpu1.iq.fu_full::FloatAdd                    0      0.00%     36.23% # attempts to use FU when none available
system.cpu1.iq.fu_full::FloatCmp                    0      0.00%     36.23% # attempts to use FU when none available
system.cpu1.iq.fu_full::FloatCvt                    0      0.00%     36.23% # attempts to use FU when none available
system.cpu1.iq.fu_full::FloatMult                   0      0.00%     36.23% # attempts to use FU when none available
system.cpu1.iq.fu_full::FloatMultAcc                0      0.00%     36.23% # attempts to use FU when none available
system.cpu1.iq.fu_full::FloatDiv                    0      0.00%     36.23% # attempts to use FU when none available
system.cpu1.iq.fu_full::FloatMisc                   0      0.00%     36.23% # attempts to use FU when none available
system.cpu1.iq.fu_full::FloatSqrt                   0      0.00%     36.23% # attempts to use FU when none available
system.cpu1.iq.fu_full::SimdAdd                     0      0.00%     36.23% # attempts to use FU when none available
system.cpu1.iq.fu_full::SimdAddAcc                  0      0.00%     36.23% # attempts to use FU when none available
system.cpu1.iq.fu_full::SimdAlu                     0      0.00%     36.23% # attempts to use FU when none available
system.cpu1.iq.fu_full::SimdCmp                     0      0.00%     36.23% # attempts to use FU when none available
system.cpu1.iq.fu_full::SimdCvt                     0      0.00%     36.23% # attempts to use FU when none available
system.cpu1.iq.fu_full::SimdMisc                    0      0.00%     36.23% # attempts to use FU when none available
system.cpu1.iq.fu_full::SimdMult                    0      0.00%     36.23% # attempts to use FU when none available
system.cpu1.iq.fu_full::SimdMultAcc                 0      0.00%     36.23% # attempts to use FU when none available
system.cpu1.iq.fu_full::SimdShift                   0      0.00%     36.23% # attempts to use FU when none available
system.cpu1.iq.fu_full::SimdShiftAcc                0      0.00%     36.23% # attempts to use FU when none available
system.cpu1.iq.fu_full::SimdDiv                     0      0.00%     36.23% # attempts to use FU when none available
system.cpu1.iq.fu_full::SimdSqrt                    0      0.00%     36.23% # attempts to use FU when none available
system.cpu1.iq.fu_full::SimdFloatAdd                0      0.00%     36.23% # attempts to use FU when none available
system.cpu1.iq.fu_full::SimdFloatAlu                0      0.00%     36.23% # attempts to use FU when none available
system.cpu1.iq.fu_full::SimdFloatCmp                0      0.00%     36.23% # attempts to use FU when none available
system.cpu1.iq.fu_full::SimdFloatCvt                0      0.00%     36.23% # attempts to use FU when none available
system.cpu1.iq.fu_full::SimdFloatDiv                0      0.00%     36.23% # attempts to use FU when none available
system.cpu1.iq.fu_full::SimdFloatMisc               0      0.00%     36.23% # attempts to use FU when none available
system.cpu1.iq.fu_full::SimdFloatMult               0      0.00%     36.23% # attempts to use FU when none available
system.cpu1.iq.fu_full::SimdFloatMultAcc            0      0.00%     36.23% # attempts to use FU when none available
system.cpu1.iq.fu_full::SimdFloatSqrt               0      0.00%     36.23% # attempts to use FU when none available
system.cpu1.iq.fu_full::SimdReduceAdd               0      0.00%     36.23% # attempts to use FU when none available
system.cpu1.iq.fu_full::SimdReduceAlu               0      0.00%     36.23% # attempts to use FU when none available
system.cpu1.iq.fu_full::SimdReduceCmp               0      0.00%     36.23% # attempts to use FU when none available
system.cpu1.iq.fu_full::SimdFloatReduceAdd            0      0.00%     36.23% # attempts to use FU when none available
system.cpu1.iq.fu_full::SimdFloatReduceCmp            0      0.00%     36.23% # attempts to use FU when none available
system.cpu1.iq.fu_full::SimdAes                     0      0.00%     36.23% # attempts to use FU when none available
system.cpu1.iq.fu_full::SimdAesMix                  0      0.00%     36.23% # attempts to use FU when none available
system.cpu1.iq.fu_full::SimdSha1Hash                0      0.00%     36.23% # attempts to use FU when none available
system.cpu1.iq.fu_full::SimdSha1Hash2               0      0.00%     36.23% # attempts to use FU when none available
system.cpu1.iq.fu_full::SimdSha256Hash              0      0.00%     36.23% # attempts to use FU when none available
system.cpu1.iq.fu_full::SimdSha256Hash2             0      0.00%     36.23% # attempts to use FU when none available
system.cpu1.iq.fu_full::SimdShaSigma2               0      0.00%     36.23% # attempts to use FU when none available
system.cpu1.iq.fu_full::SimdShaSigma3               0      0.00%     36.23% # attempts to use FU when none available
system.cpu1.iq.fu_full::SimdPredAlu                 0      0.00%     36.23% # attempts to use FU when none available
system.cpu1.iq.fu_full::MemRead               1094632     55.70%     91.93% # attempts to use FU when none available
system.cpu1.iq.fu_full::MemWrite               158574      8.07%    100.00% # attempts to use FU when none available
[...]
system.cpu1.dcache.WriteReq_misses::total      2770761                       # number of WriteReq misses
system.cpu1.dcache.WriteReq_miss_latency::.cpu1.data 186679103672                       # number of WriteReq miss cycles
system.cpu1.dcache.WriteReq_miss_latency::total 186679103672                       # number of WriteReq miss cycles
system.cpu1.dcache.WriteReq_accesses::.cpu1.data     10169315                       # number of WriteReq accesses(hits+misses)
system.cpu1.dcache.WriteReq_accesses::total     10169315                       # number of WriteReq accesses(hits+misses)
system.cpu1.dcache.WriteReq_miss_rate::.cpu1.data     0.272463                       # miss rate for WriteReq accesses
system.cpu1.dcache.WriteReq_miss_rate::total     0.272463                       # miss rate for WriteReq accesses
system.cpu1.dcache.WriteReq_avg_miss_latency::.cpu1.data 67374.668429                       # average WriteReq miss latency
system.cpu1.dcache.WriteReq_avg_miss_latency::total 67374.668429                       # average WriteReq miss latency
system.cpu1.dcache.WriteReq_mshr_hits::.cpu1.data      1736933                       # number of WriteReq MSHR hits
system.cpu1.dcache.WriteReq_mshr_hits::total      1736933                       # number of WriteReq MSHR hits
system.cpu1.dcache.WriteReq_mshr_misses::.cpu1.data      1033828                       # number of WriteReq MSHR misses
system.cpu1.dcache.WriteReq_mshr_misses::total      1033828                       # number of WriteReq MSHR misses
system.cpu1.dcache.WriteReq_mshr_miss_latency::.cpu1.data  80270575035                       # number of WriteReq MSHR miss cycles
system.cpu1.dcache.WriteReq_mshr_miss_latency::total  80270575035                       # number of WriteReq MSHR miss cycles
system.cpu1.dcache.WriteReq_mshr_miss_rate::.cpu1.data     0.101662                       # mshr miss rate for WriteReq accesses
system.cpu1.dcache.WriteReq_mshr_miss_rate::total     0.101662                       # mshr miss rate for WriteReq accesses
system.cpu1.dcache.WriteReq_avg_mshr_miss_latency::.cpu1.data 77644.032697                       # average WriteReq mshr miss latency
system.cpu1.dcache.WriteReq_avg_mshr_miss_latency::total 77644.032697                       # average WriteReq mshr miss latency
system.cpu1.dcache.LoadLockedReq_hits::.cpu1.data       568254                       # number of LoadLockedReq hits
system.cpu1.dcache.LoadLockedReq_hits::total       568254                       # number of LoadLockedReq hits
system.cpu1.dcache.LoadLockedReq_misses::.cpu1.data        75109                       # number of LoadLockedReq misses
system.cpu1.dcache.LoadLockedReq_misses::total        75109                       # number of LoadLockedReq misses
system.cpu1.dcache.LoadLockedReq_miss_latency::.cpu1.data   3925842500                       # number of LoadLockedReq miss cycles
system.cpu1.dcache.LoadLockedReq_miss_latency::total   3925842500                       # number of LoadLockedReq miss cycles
system.cpu1.dcache.LoadLockedReq_accesses::.cpu1.data       643363                       # number of LoadLockedReq accesses(hits+misses)
system.cpu1.dcache.LoadLockedReq_accesses::total       643363                       # number of LoadLockedReq accesses(hits+misses)
system.cpu1.dcache.LoadLockedReq_miss_rate::.cpu1.data     0.116744                       # miss rate for LoadLockedReq accesses
system.cpu1.dcache.LoadLockedReq_miss_rate::total     0.116744                       # miss rate for LoadLockedReq accesses
system.cpu1.dcache.LoadLockedReq_avg_miss_latency::.cpu1.data 52268.602964                       # average LoadLockedReq miss latency
system.cpu1.dcache.LoadLockedReq_avg_miss_latency::total 52268.602964                       # average LoadLockedReq miss latency
system.cpu1.dcache.LoadLockedReq_mshr_hits::.cpu1.data        40927                       # number of LoadLockedReq MSHR hits
system.cpu1.dcache.LoadLockedReq_mshr_hits::total        40927                       # number of LoadLockedReq MSHR hits
system.cpu1.dcache.LoadLockedReq_mshr_misses::.cpu1.data        34182                       # number of LoadLockedReq MSHR misses
system.cpu1.dcache.LoadLockedReq_mshr_misses::total        34182                       # number of LoadLockedReq MSHR misses
system.cpu1.dcache.LoadLockedReq_mshr_miss_latency::.cpu1.data   2273903000                       # number of LoadLockedReq MSHR miss cycles
system.cpu1.dcache.LoadLockedReq_mshr_miss_latency::total   2273903000                       # number of LoadLockedReq MSHR miss cycles
system.cpu1.dcache.LoadLockedReq_mshr_miss_rate::.cpu1.data     0.053130                       # mshr miss rate for LoadLockedReq accesses
system.cpu1.dcache.LoadLockedReq_mshr_miss_rate::total     0.053130                       # mshr miss rate for LoadLockedReq accesses
system.cpu1.dcache.LoadLockedReq_avg_mshr_miss_latency::.cpu1.data 66523.404131                       # average LoadLockedReq mshr miss latency
system.cpu1.dcache.LoadLockedReq_avg_mshr_miss_latency::total 66523.404131                       # average LoadLockedReq mshr miss latency
system.cpu1.dcache.StoreCondReq_hits::.cpu1.data       554138                       # number of StoreCondReq hits
system.cpu1.dcache.StoreCondReq_hits::total       554138                       # number of StoreCondReq hits
system.cpu1.dcache.StoreCondReq_misses::.cpu1.data        44363                       # number of StoreCondReq misses
system.cpu1.dcache.StoreCondReq_misses::total        44363                       # number of StoreCondReq misses
system.cpu1.dcache.StoreCondReq_miss_latency::.cpu1.data    422591500                       # number of StoreCondReq miss cycles
system.cpu1.dcache.StoreCondReq_miss_latency::total    422591500                       # number of StoreCondReq miss cycles
system.cpu1.dcache.StoreCondReq_accesses::.cpu1.data       598501                       # number of StoreCondReq accesses(hits+misses)
system.cpu1.dcache.StoreCondReq_accesses::total       598501                       # number of StoreCondReq accesses(hits+misses)
system.cpu1.dcache.StoreCondReq_miss_rate::.cpu1.data     0.074124                       # miss rate for StoreCondReq accesses
system.cpu1.dcache.StoreCondReq_miss_rate::total     0.074124                       # miss rate for StoreCondReq accesses
system.cpu1.dcache.StoreCondReq_avg_miss_latency::.cpu1.data  9525.764714                       # average StoreCondReq miss latency
system.cpu1.dcache.StoreCondReq_avg_miss_latency::total  9525.764714                       # average StoreCondReq miss latency
system.cpu1.dcache.StoreCondReq_mshr_misses::.cpu1.data        44346                       # number of StoreCondReq MSHR misses
system.cpu1.dcache.StoreCondReq_mshr_misses::total        44346                       # number of StoreCondReq MSHR misses
system.cpu1.dcache.StoreCondReq_mshr_miss_latency::.cpu1.data    378424500                       # number of StoreCondReq MSHR miss cycles
system.cpu1.dcache.StoreCondReq_mshr_miss_latency::total    378424500                       # number of StoreCondReq MSHR miss cycles
system.cpu1.dcache.StoreCondReq_mshr_miss_rate::.cpu1.data     0.074095                       # mshr miss rate for StoreCondReq accesses
system.cpu1.dcache.StoreCondReq_mshr_miss_rate::total     0.074095                       # mshr miss rate for StoreCondReq accesses
system.cpu1.dcache.StoreCondReq_avg_mshr_miss_latency::.cpu1.data  8533.452848                       # average StoreCondReq mshr miss latency
system.cpu1.dcache.StoreCondReq_avg_mshr_miss_latency::total  8533.452848                       # average StoreCondReq mshr miss latency
system.cpu1.dcache.StoreCondFailReq_miss_latency::.cpu1.data      4221500                       # number of StoreCondFailReq miss cycles
system.cpu1.dcache.StoreCondFailReq_miss_latency::total      4221500                       # number of StoreCondFailReq miss cycles
system.cpu1.dcache.StoreCondFailReq_avg_miss_latency::.cpu1.data          inf                       # average StoreCondFailReq miss latency
system.cpu1.dcache.StoreCondFailReq_avg_miss_latency::total          inf                       # average StoreCondFailReq miss latency
system.cpu1.dcache.StoreCondFailReq_mshr_miss_latency::.cpu1.data      4042500                       # number of StoreCondFailReq MSHR miss cycles
system.cpu1.dcache.StoreCondFailReq_mshr_miss_latency::total      4042500                       # number of StoreCondFailReq MSHR miss cycles
system.cpu1.dcache.StoreCondFailReq_avg_mshr_miss_latency::.cpu1.data          inf                       # average StoreCondFailReq mshr miss latency
system.cpu1.dcache.StoreCondFailReq_avg_mshr_miss_latency::total          inf                       # average StoreCondFailReq mshr miss latency
system.cpu1.dcache.SwapReq_hits::.cpu1.data       113479                       # number of SwapReq hits
system.cpu1.dcache.SwapReq_hits::total         113479                       # number of SwapReq hits
system.cpu1.dcache.SwapReq_misses::.cpu1.data        48706                       # number of SwapReq misses
system.cpu1.dcache.SwapReq_misses::total        48706                       # number of SwapReq misses
system.cpu1.dcache.SwapReq_miss_latency::.cpu1.data    757559477                       # number of SwapReq miss cycles
system.cpu1.dcache.SwapReq_miss_latency::total    757559477                       # number of SwapReq miss cycles
system.cpu1.dcache.SwapReq_accesses::.cpu1.data       162185                       # number of SwapReq accesses(hits+misses)
system.cpu1.dcache.SwapReq_accesses::total       162185                       # number of SwapReq accesses(hits+misses)
system.cpu1.dcache.SwapReq_miss_rate::.cpu1.data     0.300311                       # miss rate for SwapReq accesses
system.cpu1.dcache.SwapReq_miss_rate::total     0.300311                       # miss rate for SwapReq accesses
system.cpu1.dcache.SwapReq_avg_miss_latency::.cpu1.data 15553.719809                       # average SwapReq miss latency
system.cpu1.dcache.SwapReq_avg_miss_latency::total 15553.719809                       # average SwapReq miss latency
system.cpu1.dcache.SwapReq_mshr_hits::.cpu1.data          181                       # number of SwapReq MSHR hits
system.cpu1.dcache.SwapReq_mshr_hits::total          181                       # number of SwapReq MSHR hits
system.cpu1.dcache.SwapReq_mshr_misses::.cpu1.data        48525                       # number of SwapReq MSHR misses
system.cpu1.dcache.SwapReq_mshr_misses::total        48525                       # number of SwapReq MSHR misses
system.cpu1.dcache.SwapReq_mshr_miss_latency::.cpu1.data    703237978                       # number of SwapReq MSHR miss cycles
system.cpu1.dcache.SwapReq_mshr_miss_latency::total    703237978                       # number of SwapReq MSHR miss cycles
system.cpu1.dcache.SwapReq_mshr_miss_rate::.cpu1.data     0.299195                       # mshr miss rate for SwapReq accesses
system.cpu1.dcache.SwapReq_mshr_miss_rate::total     0.299195                       # mshr miss rate for SwapReq accesses
system.cpu1.dcache.SwapReq_avg_mshr_miss_latency::.cpu1.data 14492.281875                       # average SwapReq mshr miss latency
system.cpu1.dcache.SwapReq_avg_mshr_miss_latency::total 14492.281875                       # average SwapReq mshr miss latency
system.cpu1.dcache.tags.pwrStateResidencyTicks::UNDEFINED 668122918000                       # Cumulative time (in ticks) in various power states
system.cpu1.dcache.tags.tagsinuse           31.752316                       # Cycle average of tags in use
system.cpu1.dcache.tags.total_refs           49812719                       # Total number of references to valid blocks.
system.cpu1.dcache.tags.sampled_refs          7809163                       # Sample count of references to valid blocks.
system.cpu1.dcache.tags.avg_refs             6.378753                       # Average number of references to valid blocks.
system.cpu1.dcache.tags.warmup_cycle                0                       # Cycle when the warmup percentage was hit.
system.cpu1.dcache.tags.occ_blocks::.cpu1.data    31.752316                       # Average occupied blocks per requestor
system.cpu1.dcache.tags.occ_percent::.cpu1.data     0.992260                       # Average percentage of cache occupancy
system.cpu1.dcache.tags.occ_percent::total     0.992260                       # Average percentage of cache occupancy
system.cpu1.dcache.tags.occ_task_id_blocks::1024           29                       # Occupied blocks per task id
system.cpu1.dcache.tags.age_task_id_blocks_1024::1            5                       # Occupied blocks per task id
system.cpu1.dcache.tags.age_task_id_blocks_1024::2           24                       # Occupied blocks per task id
system.cpu1.dcache.tags.occ_task_id_percent::1024     0.906250                       # Percentage of cache occupancy per task id
system.cpu1.dcache.tags.tag_accesses        126048770                       # Number of tag accesses
system.cpu1.dcache.tags.data_accesses       126048770                       # Number of data accesses
system.cpu_clk_domain.clock                       500                       # Clock period in ticks
system.tol2bus.pwrStateResidencyTicks::UNDEFINED 668122918000                       # Cumulative time (in ticks) in various power states
system.tol2bus.trans_dist::ReadResp          21559996                       # Transaction distribution
system.tol2bus.trans_dist::WritebackDirty      9053362                       # Transaction distribution
system.tol2bus.trans_dist::WritebackClean     18391207                       # Transaction distribution
system.tol2bus.trans_dist::CleanEvict        36643341                       # Transaction distribution
system.tol2bus.trans_dist::HardPFReq          9757086                       # Transaction distribution
system.tol2bus.trans_dist::HardPFResp              10                       # Transaction distribution
system.tol2bus.trans_dist::UpgradeReq          151776                       # Transaction distribution
system.tol2bus.trans_dist::SCUpgradeReq         84958                       # Transaction distribution
system.tol2bus.trans_dist::UpgradeResp         236734                       # Transaction distribution
system.tol2bus.trans_dist::SCUpgradeFailReq          215                       # Transaction distribution
system.tol2bus.trans_dist::UpgradeFailResp          215                       # Transaction distribution
system.tol2bus.trans_dist::ReadExReq          2012882                       # Transaction distribution
system.tol2bus.trans_dist::ReadExResp         2012883                       # Transaction distribution
system.tol2bus.trans_dist::ReadCleanReq       7406444                       # Transaction distribution
system.tol2bus.trans_dist::ReadSharedReq     14153551                       # Transaction distribution
system.tol2bus.trans_dist::InvalidateReq        15150                       # Transaction distribution
system.tol2bus.trans_dist::InvalidateResp        15150                       # Transaction distribution
system.tol2bus.pkt_count_system.cpu0.icache.mem_side::system.l2.cpu_side      8946887                       # Packet count per connected master and slave (bytes)
system.tol2bus.pkt_count_system.cpu0.dcache.mem_side::system.l2.cpu_side     24963404                       # Packet count per connected master and slave (bytes)
system.tol2bus.pkt_count_system.cpu1.icache.mem_side::system.l2.cpu_side     13270651                       # Packet count per connected master and slave (bytes)
system.tol2bus.pkt_count_system.cpu1.dcache.mem_side::system.l2.cpu_side     23213592                       # Packet count per connected master and slave (bytes)
system.tol2bus.pkt_count::total              70394534                       # Packet count per connected master and slave (bytes)
system.tol2bus.pkt_size_system.cpu0.icache.mem_side::system.l2.cpu_side    381712064                       # Cumulative packet size per connected master and slave (bytes)
system.tol2bus.pkt_size_system.cpu0.dcache.mem_side::system.l2.cpu_side   1050558720                       # Cumulative packet size per connected master and slave (bytes)
system.tol2bus.pkt_size_system.cpu1.icache.mem_side::system.l2.cpu_side    566197952                       # Cumulative packet size per connected master and slave (bytes)
system.tol2bus.pkt_size_system.cpu1.dcache.mem_side::system.l2.cpu_side    976822464                       # Cumulative packet size per connected master and slave (bytes)
system.tol2bus.pkt_size::total             2975291200                       # Cumulative packet size per connected master and slave (bytes)
system.tol2bus.snoops                        51100436                       # Total snoops (count)
system.tol2bus.snoopTraffic                 289840512                       # Total snoop traffic (bytes)
system.tol2bus.snoop_fanout::samples         74384022                       # Request fanout histogram
system.tol2bus.snoop_fanout::mean            0.309725                       # Request fanout histogram
system.tol2bus.snoop_fanout::stdev           0.504895                       # Request fanout histogram
system.tol2bus.snoop_fanout::underflows             0      0.00%      0.00% # Request fanout histogram
system.tol2bus.snoop_fanout::0               52874906     71.08%     71.08% # Request fanout histogram
system.tol2bus.snoop_fanout::1               19979713     26.86%     97.94% # Request fanout histogram
system.tol2bus.snoop_fanout::2                1529359      2.06%    100.00% # Request fanout histogram
system.tol2bus.snoop_fanout::3                     44      0.00%    100.00% # Request fanout histogram
system.tol2bus.snoop_fanout::4                      0      0.00%    100.00% # Request fanout histogram
system.tol2bus.snoop_fanout::5                      0      0.00%    100.00% # Request fanout histogram
system.tol2bus.snoop_fanout::6                      0      0.00%    100.00% # Request fanout histogram
system.tol2bus.snoop_fanout::7                      0      0.00%    100.00% # Request fanout histogram
system.tol2bus.snoop_fanout::8                      0      0.00%    100.00% # Request fanout histogram
system.tol2bus.snoop_fanout::overflows              0      0.00%    100.00% # Request fanout histogram
system.tol2bus.snoop_fanout::min_value              0                       # Request fanout histogram
system.tol2bus.snoop_fanout::max_value              3                       # Request fanout histogram
system.tol2bus.snoop_fanout::total           74384022                       # Request fanout histogram
system.tol2bus.reqLayer0.occupancy        46866268818                       # Layer occupancy (ticks)
system.tol2bus.reqLayer0.utilization              7.0                       # Layer utilization (%)
system.tol2bus.respLayer1.occupancy       12622453623                       # Layer occupancy (ticks)
system.tol2bus.respLayer1.utilization             1.9                       # Layer utilization (%)
system.tol2bus.respLayer0.occupancy        4482264339                       # Layer occupancy (ticks)
system.tol2bus.respLayer0.utilization             0.7                       # Layer utilization (%)
system.tol2bus.respLayer3.occupancy       11772511881                       # Layer occupancy (ticks)
system.tol2bus.respLayer3.utilization             1.8                       # Layer utilization (%)
system.tol2bus.respLayer2.occupancy        6642983421                       # Layer occupancy (ticks)
system.tol2bus.respLayer2.utilization             1.0                       # Layer utilization (%)
system.tol2bus.snoopLayer0.occupancy            15014                       # Layer occupancy (ticks)
system.tol2bus.snoopLayer0.utilization            0.0                       # Layer utilization (%)

---------- End Simulation Statistics   ----------
