
---------- Begin Simulation Statistics ----------
final_tick                                50029801000                       # Number of ticks from beginning of simulation (restored from checkpoints and never reset)
host_inst_rate                                  85046                       # Simulator instruction rate (inst/s)
host_mem_usage                                 738304                       # Number of bytes of host memory used
host_op_rate                                    85399                       # Simulator op (including micro ops) rate (op/s)
host_seconds                                   744.06                       # Real time elapsed on the host
host_tick_rate                               67238979                       # Simulator tick rate (ticks/s)
sim_freq                                 1000000000000                       # Frequency of simulated ticks
sim_insts                                    63279285                       # Number of instructions simulated
sim_ops                                      63542262                       # Number of ops (including micro ops) simulated
sim_seconds                                  0.050030                       # Number of seconds simulated
sim_ticks                                 50029801000                       # Number of ticks simulated
system.cpu0.branchPred.BTBCorrect                   0                       # Number of correct BTB predictions (this stat may not work properly.
system.cpu0.branchPred.BTBHitPct            84.955023                       # BTB Hit Percentage
system.cpu0.branchPred.BTBHits               12332733                       # Number of BTB hits
system.cpu0.branchPred.BTBLookups            14516779                       # Number of BTB lookups
system.cpu0.branchPred.RASInCorrect                 0                       # Number of incorrect RAS predictions.
system.cpu0.branchPred.condIncorrect          2833767                       # Number of conditional branches incorrect
system.cpu0.branchPred.condPredicted         13603075                       # Number of conditional branches predicted
system.cpu0.branchPred.indirectHits            985063                       # Number of indirect target hits.
system.cpu0.branchPred.indirectLookups         992351                       # Number of indirect predictor lookups.
system.cpu0.branchPred.indirectMisses            7288                       # Number of indirect misses.
system.cpu0.branchPred.lookups               16722955                       # Number of BP lookups
system.cpu0.branchPred.usedRAS                      0                       # Number of times the RAS was used to get a target.
system.cpu0.branchPredindirectMispredicted         4035                       # Number of mispredicted indirect branches.
system.cpu0.commit.amos                         65824                       # Number of atomic instructions committed
system.cpu0.commit.branchMispredicts          1531136                       # The number of times a branch was mispredicted
system.cpu0.commit.branches                   8105586                       # Number of branches committed
system.cpu0.commit.bw_lim_events               257301                       # number cycles where commit BW limit reached
system.cpu0.commit.commitNonSpecStalls         197957                       # The number of times commit has been forced to stall to communicate backwards
system.cpu0.commit.commitSquashedInsts       27272392                       # The number of squashed insts skipped by commit
system.cpu0.commit.committedInsts            52849983                       # Number of instructions committed
system.cpu0.commit.committedOps              52915782                       # Number of ops (including micro ops) committed
system.cpu0.commit.committed_per_cycle::samples     94035613                       # Number of insts commited each cycle
system.cpu0.commit.committed_per_cycle::mean     0.562721                       # Number of insts commited each cycle
system.cpu0.commit.committed_per_cycle::stdev     1.040852                       # Number of insts commited each cycle
system.cpu0.commit.committed_per_cycle::underflows            0      0.00%      0.00% # Number of insts commited each cycle
system.cpu0.commit.committed_per_cycle::0     64087636     68.15%     68.15% # Number of insts commited each cycle
system.cpu0.commit.committed_per_cycle::1     15755896     16.76%     84.91% # Number of insts commited each cycle
system.cpu0.commit.committed_per_cycle::2      8984600      9.55%     94.46% # Number of insts commited each cycle
system.cpu0.commit.committed_per_cycle::3      3680976      3.91%     98.38% # Number of insts commited each cycle
system.cpu0.commit.committed_per_cycle::4       600247      0.64%     99.01% # Number of insts commited each cycle
system.cpu0.commit.committed_per_cycle::5       452794      0.48%     99.50% # Number of insts commited each cycle
system.cpu0.commit.committed_per_cycle::6        88749      0.09%     99.59% # Number of insts commited each cycle
system.cpu0.commit.committed_per_cycle::7       127414      0.14%     99.73% # Number of insts commited each cycle
system.cpu0.commit.committed_per_cycle::8       257301      0.27%    100.00% # Number of insts commited each cycle
system.cpu0.commit.committed_per_cycle::overflows            0      0.00%    100.00% # Number of insts commited each cycle
system.cpu0.commit.committed_per_cycle::min_value            0                       # Number of insts commited each cycle
system.cpu0.commit.committed_per_cycle::max_value            8                       # Number of insts commited each cycle
system.cpu0.commit.committed_per_cycle::total     94035613                       # Number of insts commited each cycle
system.cpu0.commit.fp_insts                   5636177                       # Number of committed floating point instructions.
system.cpu0.commit.function_calls             1603941                       # Number of function calls committed.
system.cpu0.commit.int_insts                 50304552                       # Number of committed integer instructions.
system.cpu0.commit.loads                      5138954                       # Number of loads committed
system.cpu0.commit.membars                     131666                       # Number of memory barriers committed
system.cpu0.commit.op_class_0::No_OpClass       131675      0.25%      0.25% # Class of committed instruction
system.cpu0.commit.op_class_0::IntAlu        39927770     75.46%     75.70% # Class of committed instruction
system.cpu0.commit.op_class_0::IntMult           6136      0.01%     75.72% # Class of committed instruction
system.cpu0.commit.op_class_0::IntDiv            8240      0.02%     75.73% # Class of committed instruction
system.cpu0.commit.op_class_0::FloatAdd       1572864      2.97%     78.70% # Class of committed instruction
system.cpu0.commit.op_class_0::FloatCmp       2359302      4.46%     83.16% # Class of committed instruction
system.cpu0.commit.op_class_0::FloatCvt        851984      1.61%     84.77% # Class of committed instruction
system.cpu0.commit.op_class_0::FloatMult       786432      1.49%     86.26% # Class of committed instruction
system.cpu0.commit.op_class_0::FloatMultAcc            0      0.00%     86.26% # Class of committed instruction
system.cpu0.commit.op_class_0::FloatDiv             2      0.00%     86.26% # Class of committed instruction
system.cpu0.commit.op_class_0::FloatMisc            6      0.00%     86.26% # Class of committed instruction
system.cpu0.commit.op_class_0::FloatSqrt            0      0.00%     86.26% # Class of committed instruction
system.cpu0.commit.op_class_0::SimdAdd              0      0.00%     86.26% # Class of committed instruction
system.cpu0.commit.op_class_0::SimdAddAcc            0      0.00%     86.26% # Class of committed instruction
system.cpu0.commit.op_class_0::SimdAlu              0      0.00%     86.26% # Class of committed instruction
system.cpu0.commit.op_class_0::SimdCmp              0      0.00%     86.26% # Class of committed instruction
system.cpu0.commit.op_class_0::SimdCvt              0      0.00%     86.26% # Class of committed instruction
system.cpu0.commit.op_class_0::SimdMisc             0      0.00%     86.26% # Class of committed instruction
system.cpu0.commit.op_class_0::SimdMult             0      0.00%     86.26% # Class of committed instruction
system.cpu0.commit.op_class_0::SimdMultAcc            0      0.00%     86.26% # Class of committed instruction
system.cpu0.commit.op_class_0::SimdShift            0      0.00%     86.26% # Class of committed instruction
system.cpu0.commit.op_class_0::SimdShiftAcc            0      0.00%     86.26% # Class of committed instruction
system.cpu0.commit.op_class_0::SimdDiv              0      0.00%     86.26% # Class of committed instruction
system.cpu0.commit.op_class_0::SimdSqrt             0      0.00%     86.26% # Class of committed instruction
system.cpu0.commit.op_class_0::SimdFloatAdd            0      0.00%     86.26% # Class of committed instruction
system.cpu0.commit.op_class_0::SimdFloatAlu            0      0.00%     86.26% # Class of committed instruction
system.cpu0.commit.op_class_0::SimdFloatCmp            0      0.00%     86.26% # Class of committed instruction
system.cpu0.commit.op_class_0::SimdFloatCvt            0      0.00%     86.26% # Class of committed instruction
system.cpu0.commit.op_class_0::SimdFloatDiv            0      0.00%     86.26% # Class of committed instruction
system.cpu0.commit.op_class_0::SimdFloatMisc            0      0.00%     86.26% # Class of committed instruction
system.cpu0.commit.op_class_0::SimdFloatMult            0      0.00%     86.26% # Class of committed instruction
system.cpu0.commit.op_class_0::SimdFloatMultAcc            0      0.00%     86.26% # Class of committed instruction
system.cpu0.commit.op_class_0::SimdFloatSqrt            0      0.00%     86.26% # Class of committed instruction
system.cpu0.commit.op_class_0::SimdReduceAdd            0      0.00%     86.26% # Class of committed instruction
system.cpu0.commit.op_class_0::SimdReduceAlu            0      0.00%     86.26% # Class of committed instruction
system.cpu0.commit.op_class_0::SimdReduceCmp            0      0.00%     86.26% # Class of committed instruction
system.cpu0.commit.op_class_0::SimdFloatReduceAdd            0      0.00%     86.26% # Class of committed instruction
system.cpu0.commit.op_class_0::SimdFloatReduceCmp            0      0.00%     86.26% # Class of committed instruction
system.cpu0.commit.op_class_0::SimdAes              0      0.00%     86.26% # Class of committed instruction
system.cpu0.commit.op_class_0::SimdAesMix            0      0.00%     86.26% # Class of committed instruction
system.cpu0.commit.op_class_0::SimdSha1Hash            0      0.00%     86.26% # Class of committed instruction
system.cpu0.commit.op_class_0::SimdSha1Hash2            0      0.00%     86.26% # Class of committed instruction
system.cpu0.commit.op_class_0::SimdSha256Hash            0      0.00%     86.26% # Class of committed instruction
system.cpu0.commit.op_class_0::SimdSha256Hash2            0      0.00%     86.26% # Class of committed instruction
system.cpu0.commit.op_class_0::SimdShaSigma2            0      0.00%     86.26% # Class of committed instruction
system.cpu0.commit.op_class_0::SimdShaSigma3            0      0.00%     86.26% # Class of committed instruction
system.cpu0.commit.op_class_0::SimdPredAlu            0      0.00%     86.26% # Class of committed instruction
system.cpu0.commit.op_class_0::MemRead        5139220      9.71%     95.97% # Class of committed instruction
system.cpu0.commit.op_class_0::MemWrite       2066564      3.91%     99.88% # Class of committed instruction
system.cpu0.commit.op_class_0::FloatMemRead        65558      0.12%    100.00% # Class of committed instruction
system.cpu0.commit.op_class_0::FloatMemWrite           29      0.00%    100.00% # Class of committed instruction
system.cpu0.commit.op_class_0::IprAccess            0      0.00%    100.00% # Class of committed instruction
system.cpu0.commit.op_class_0::InstPrefetch            0      0.00%    100.00% # Class of committed instruction
system.cpu0.commit.op_class_0::total         52915782                       # Class of committed instruction
system.cpu0.commit.refs                       7271371                       # Number of memory references committed
system.cpu0.commit.swp_count                        0                       # Number of s/w prefetches committed
system.cpu0.commit.vec_insts                        0                       # Number of committed Vector instructions.
system.cpu0.committedInsts                   52849983                       # Number of Instructions Simulated
system.cpu0.committedOps                     52915782                       # Number of Ops (including micro ops) Simulated
system.cpu0.cpi                              1.870799                       # CPI: Cycles Per Instruction
system.cpu0.cpi_total                        1.870799                       # CPI: Total CPI of All Threads
system.cpu0.decode.BlockedCycles             32047857                       # Number of cycles decode is blocked
system.cpu0.decode.BranchMispred              1302972                       # Number of times decode detected a branch misprediction
system.cpu0.decode.BranchResolved            10739630                       # Number of times decode resolved a branch
system.cpu0.decode.DecodedInsts              87019884                       # Number of instructions handled by decode
system.cpu0.decode.IdleCycles                16286498                       # Number of cycles decode is idle
system.cpu0.decode.RunCycles                 46983359                       # Number of cycles decode is running
system.cpu0.decode.SquashCycles               1531459                       # Number of cycles decode is squashing
system.cpu0.decode.SquashedInsts              2641709                       # Number of squashed instructions handled by decode
system.cpu0.decode.UnblockCycles              1198431                       # Number of cycles decode is unblocking
system.cpu0.dtb.accesses                            0                       # DTB accesses
system.cpu0.dtb.hits                                0                       # DTB hits
system.cpu0.dtb.misses                              0                       # DTB misses
system.cpu0.dtb.read_accesses                       0                       # DTB read accesses
system.cpu0.dtb.read_hits                           0                       # DTB read hits
system.cpu0.dtb.read_misses                         0                       # DTB read misses
system.cpu0.dtb.write_accesses                      0                       # DTB write accesses
system.cpu0.dtb.write_hits                          0                       # DTB write hits
system.cpu0.dtb.write_misses                        0                       # DTB write misses
system.cpu0.fetch.Branches                   16722955                       # Number of branches that fetch encountered
system.cpu0.fetch.CacheLines                 11960110                       # Number of cache lines fetched
system.cpu0.fetch.Cycles                     81270634                       # Number of cycles fetch has run and was not squashing or blocked
system.cpu0.fetch.IcacheSquashes                97305                       # Number of outstanding Icache misses that were squashed
system.cpu0.fetch.IcacheWaitRetryStallCycles          112                       # Number of stall cycles due to full MSHR
system.cpu0.fetch.Insts                      98902453                       # Number of instructions fetch has processed
system.cpu0.fetch.MiscStallCycles                 117                       # Number of cycles fetch has spent waiting on interrupts, or bad addresses, or out of MSHRs
system.cpu0.fetch.PendingTrapStallCycles            6                       # Number of stall cycles due to pending traps
system.cpu0.fetch.SquashCycles                5668182                       # Number of cycles fetch has spent squashing
system.cpu0.fetch.branchRate                 0.169138                       # Number of branch fetches per cycle
system.cpu0.fetch.icacheStallCycles          13942644                       # Number of cycles fetch is stalled on an Icache miss
system.cpu0.fetch.predictedBranches          13317796                       # Number of branches that fetch has predicted taken
system.cpu0.fetch.rate                       1.000311                       # Number of inst fetches per cycle
system.cpu0.fetch.rateDist::samples          98047604                       # Number of instructions fetched each cycle (Total)
system.cpu0.fetch.rateDist::mean             1.009392                       # Number of instructions fetched each cycle (Total)
system.cpu0.fetch.rateDist::stdev            1.292769                       # Number of instructions fetched each cycle (Total)
system.cpu0.fetch.rateDist::underflows              0      0.00%      0.00% # Number of instructions fetched each cycle (Total)
system.cpu0.fetch.rateDist::0                42971443     43.83%     43.83% # Number of instructions fetched each cycle (Total)
system.cpu0.fetch.rateDist::1                32077464     32.72%     76.54% # Number of instructions fetched each cycle (Total)
system.cpu0.fetch.rateDist::2                12712335     12.97%     89.51% # Number of instructions fetched each cycle (Total)
system.cpu0.fetch.rateDist::3                 4870764      4.97%     94.48% # Number of instructions fetched each cycle (Total)
system.cpu0.fetch.rateDist::4                 2025806      2.07%     96.54% # Number of instructions fetched each cycle (Total)
system.cpu0.fetch.rateDist::5                 1594312      1.63%     98.17% # Number of instructions fetched each cycle (Total)
system.cpu0.fetch.rateDist::6                 1791835      1.83%    100.00% # Number of instructions fetched each cycle (Total)
system.cpu0.fetch.rateDist::7                     906      0.00%    100.00% # Number of instructions fetched each cycle (Total)
system.cpu0.fetch.rateDist::8                    2739      0.00%    100.00% # Number of instructions fetched each cycle (Total)
system.cpu0.fetch.rateDist::overflows               0      0.00%    100.00% # Number of instructions fetched each cycle (Total)
system.cpu0.fetch.rateDist::min_value               0                       # Number of instructions fetched each cycle (Total)
system.cpu0.fetch.rateDist::max_value               8                       # Number of instructions fetched each cycle (Total)
system.cpu0.fetch.rateDist::total            98047604                       # Number of instructions fetched each cycle (Total)
system.cpu0.fp_regfile_reads                 12216610                       # number of floating regfile reads
system.cpu0.fp_regfile_writes                 3807002                       # number of floating regfile writes
system.cpu0.idleCycles                         824065                       # Total number of cycles that the CPU has spent unscheduled due to idling
system.cpu0.iew.branchMispredicts             1690614                       # Number of branch mispredicts detected at execute
system.cpu0.iew.exec_branches                11648959                       # Number of branches executed
system.cpu0.iew.exec_nop                            0                       # number of nop insts executed
system.cpu0.iew.exec_rate                    0.745995                       # Inst execution rate
system.cpu0.iew.exec_refs                    11199840                       # number of memory reference insts executed
system.cpu0.iew.exec_stores                   2820152                       # Number of stores executed
system.cpu0.iew.exec_swp                            0                       # number of swp insts executed
system.cpu0.iew.iewBlockCycles               29006403                       # Number of cycles IEW is blocking
system.cpu0.iew.iewDispLoadInsts              8654702                       # Number of dispatched load instructions
system.cpu0.iew.iewDispNonSpecInsts             66514                       # Number of dispatched non-speculative instructions
system.cpu0.iew.iewDispSquashedInsts           434971                       # Number of squashed instructions skipped by dispatch
system.cpu0.iew.iewDispStoreInsts             3489001                       # Number of dispatched store instructions
system.cpu0.iew.iewDispatchedInsts           80187676                       # Number of instructions dispatched to IQ
system.cpu0.iew.iewExecLoadInsts              8379688                       # Number of load instructions executed
system.cpu0.iew.iewExecSquashedInsts          1457611                       # Number of squashed instructions skipped in execute
system.cpu0.iew.iewExecutedInsts             73757767                       # Number of executed instructions
system.cpu0.iew.iewIQFullEvents                177412                       # Number of times the IQ has become full, causing a stall
system.cpu0.iew.iewIdleCycles                       0                       # Number of cycles IEW is idle
system.cpu0.iew.iewLSQFullEvents                88997                       # Number of times the LSQ has become full, causing a stall
system.cpu0.iew.iewSquashCycles               1531459                       # Number of cycles IEW is squashing
system.cpu0.iew.iewUnblockCycles               518833                       # Number of cycles IEW is unblocking
system.cpu0.iew.lsq.thread0.blockedLoads            0                       # Number of blocked loads due to partial load-store forwarding
system.cpu0.iew.lsq.thread0.cacheBlocked         6213                       # Number of times an access to memory failed due to the cache being blocked
system.cpu0.iew.lsq.thread0.forwLoads          276909                       # Number of loads that had data forwarded from stores
system.cpu0.iew.lsq.thread0.ignoredResponses         2013                       # Number of memory responses ignored because the instruction is squashed
system.cpu0.iew.lsq.thread0.invAddrLoads            0                       # Number of loads ignored due to an invalid address
system.cpu0.iew.lsq.thread0.invAddrSwpfs            0                       # Number of software prefetches ignored due to an invalid address
system.cpu0.iew.lsq.thread0.memOrderViolation          386                       # Number of memory ordering violations
system.cpu0.iew.lsq.thread0.rescheduledLoads          110                       # Number of loads that were rescheduled
system.cpu0.iew.lsq.thread0.squashedLoads      3515748                       # Number of loads squashed
system.cpu0.iew.lsq.thread0.squashedStores      1356584                       # Number of stores squashed
system.cpu0.iew.memOrderViolationEvents           386                       # Number of memory order violations
system.cpu0.iew.predictedNotTakenIncorrect        72929                       # Number of branches that were predicted not taken incorrectly
system.cpu0.iew.predictedTakenIncorrect       1617685                       # Number of branches that were predicted taken incorrectly
system.cpu0.iew.wb_consumers                 56557686                       # num instructions consuming a value
system.cpu0.iew.wb_count                     73230181                       # cumulative count of insts written-back
system.cpu0.iew.wb_fanout                    0.820578                       # average fanout of values written-back
system.cpu0.iew.wb_producers                 46409984                       # num instructions producing a value
system.cpu0.iew.wb_rate                      0.740659                       # insts written-back per cycle
system.cpu0.iew.wb_sent                      73326039                       # cumulative count of insts sent to commit
system.cpu0.int_regfile_reads                84743471                       # number of integer regfile reads
system.cpu0.int_regfile_writes               56087250                       # number of integer regfile writes
system.cpu0.ipc                              0.534531                       # IPC: Instructions Per Cycle
system.cpu0.ipc_total                        0.534531                       # IPC: Total IPC of All Threads
system.cpu0.iq.FU_type_0::No_OpClass           131813      0.18%      0.18% # Type of FU issued
system.cpu0.iq.FU_type_0::IntAlu             56600440     75.25%     75.43% # Type of FU issued
system.cpu0.iq.FU_type_0::IntMult                6171      0.01%     75.43% # Type of FU issued
system.cpu0.iq.FU_type_0::IntDiv                 8254      0.01%     75.45% # Type of FU issued
system.cpu0.iq.FU_type_0::FloatAdd            1838227      2.44%     77.89% # Type of FU issued
system.cpu0.iq.FU_type_0::FloatCmp            3353044      4.46%     82.35% # Type of FU issued
system.cpu0.iq.FU_type_0::FloatCvt            1012073      1.35%     83.69% # Type of FU issued
system.cpu0.iq.FU_type_0::FloatMult            918434      1.22%     84.91% # Type of FU issued
system.cpu0.iq.FU_type_0::FloatMultAcc              0      0.00%     84.91% # Type of FU issued
system.cpu0.iq.FU_type_0::FloatDiv                  2      0.00%     84.91% # Type of FU issued
system.cpu0.iq.FU_type_0::FloatMisc                 6      0.00%     84.91% # Type of FU issued
system.cpu0.iq.FU_type_0::FloatSqrt                 0      0.00%     84.91% # Type of FU issued
system.cpu0.iq.FU_type_0::SimdAdd                   0      0.00%     84.91% # Type of FU issued
system.cpu0.iq.FU_type_0::SimdAddAcc                0      0.00%     84.91% # Type of FU issued
system.cpu0.iq.FU_type_0::SimdAlu                   0      0.00%     84.91% # Type of FU issued
system.cpu0.iq.FU_type_0::SimdCmp                   0      0.00%     84.91% # Type of FU issued
system.cpu0.iq.FU_type_0::SimdCvt                   0      0.00%     84.91% # Type of FU issued
system.cpu0.iq.FU_type_0::SimdMisc                  0      0.00%     84.91% # Type of FU issued
system.cpu0.iq.FU_type_0::SimdMult                  0      0.00%     84.91% # Type of FU issued
system.cpu0.iq.FU_type_0::SimdMultAcc               0      0.00%     84.91% # Type of FU issued
system.cpu0.iq.FU_type_0::SimdShift                 0      0.00%     84.91% # Type of FU issued
system.cpu0.iq.FU_type_0::SimdShiftAcc              0      0.00%     84.91% # Type of FU issued
system.cpu0.iq.FU_type_0::SimdDiv                   0      0.00%     84.91% # Type of FU issued
system.cpu0.iq.FU_type_0::SimdSqrt                  0      0.00%     84.91% # Type of FU issued
system.cpu0.iq.FU_type_0::SimdFloatAdd              0      0.00%     84.91% # Type of FU issued
system.cpu0.iq.FU_type_0::SimdFloatAlu              0      0.00%     84.91% # Type of FU issued
system.cpu0.iq.FU_type_0::SimdFloatCmp              0      0.00%     84.91% # Type of FU issued
system.cpu0.iq.FU_type_0::SimdFloatCvt              0      0.00%     84.91% # Type of FU issued
system.cpu0.iq.FU_type_0::SimdFloatDiv              0      0.00%     84.91% # Type of FU issued
system.cpu0.iq.FU_type_0::SimdFloatMisc             0      0.00%     84.91% # Type of FU issued
system.cpu0.iq.FU_type_0::SimdFloatMult             0      0.00%     84.91% # Type of FU issued
system.cpu0.iq.FU_type_0::SimdFloatMultAcc            0      0.00%     84.91% # Type of FU issued
system.cpu0.iq.FU_type_0::SimdFloatSqrt             0      0.00%     84.91% # Type of FU issued
system.cpu0.iq.FU_type_0::SimdReduceAdd             0      0.00%     84.91% # Type of FU issued
system.cpu0.iq.FU_type_0::SimdReduceAlu             0      0.00%     84.91% # Type of FU issued
system.cpu0.iq.FU_type_0::SimdReduceCmp             0      0.00%     84.91% # Type of FU issued
system.cpu0.iq.FU_type_0::SimdFloatReduceAdd            0      0.00%     84.91% # Type of FU issued
system.cpu0.iq.FU_type_0::SimdFloatReduceCmp            0      0.00%     84.91% # Type of FU issued
system.cpu0.iq.FU_type_0::SimdAes                   0      0.00%     84.91% # Type of FU issued
system.cpu0.iq.FU_type_0::SimdAesMix                0      0.00%     84.91% # Type of FU issued
system.cpu0.iq.FU_type_0::SimdSha1Hash              0      0.00%     84.91% # Type of FU issued
system.cpu0.iq.FU_type_0::SimdSha1Hash2             0      0.00%     84.91% # Type of FU issued
system.cpu0.iq.FU_type_0::SimdSha256Hash            0      0.00%     84.91% # Type of FU issued
system.cpu0.iq.FU_type_0::SimdSha256Hash2            0      0.00%     84.91% # Type of FU issued
system.cpu0.iq.FU_type_0::SimdShaSigma2             0      0.00%     84.91% # Type of FU issued
system.cpu0.iq.FU_type_0::SimdShaSigma3             0      0.00%     84.91% # Type of FU issued
system.cpu0.iq.FU_type_0::SimdPredAlu               0      0.00%     84.91% # Type of FU issued
system.cpu0.iq.FU_type_0::MemRead             8470768     11.26%     96.18% # Type of FU issued
system.cpu0.iq.FU_type_0::MemWrite            2810044      3.74%     99.91% # Type of FU issued
system.cpu0.iq.FU_type_0::FloatMemRead          66074      0.09%    100.00% # Type of FU issued
system.cpu0.iq.FU_type_0::FloatMemWrite            29      0.00%    100.00% # Type of FU issued
system.cpu0.iq.FU_type_0::IprAccess                 0      0.00%    100.00% # Type of FU issued
system.cpu0.iq.FU_type_0::InstPrefetch              0      0.00%    100.00% # Type of FU issued
system.cpu0.iq.FU_type_0::total              75215379                       # Type of FU issued
system.cpu0.iq.fp_alu_accesses                7188141                       # Number of floating point alu accesses
system.cpu0.iq.fp_inst_queue_reads           14376030                       # Number of floating instruction queue reads
system.cpu0.iq.fp_inst_queue_wakeup_accesses      7159967                       # Number of floating instruction queue wakeup accesses
system.cpu0.iq.fp_inst_queue_writes           8937161                       # Number of floating instruction queue writes
system.cpu0.iq.fu_busy_cnt                     467228                       # FU busy when requested
system.cpu0.iq.fu_busy_rate                  0.006212                       # FU busy rate (busy events/executed inst)
system.cpu0.iq.fu_full::No_OpClass                  0      0.00%      0.00% # attempts to use FU when none available
system.cpu0.iq.fu_full::IntAlu                 426904     91.37%     91.37% # attempts to use FU when none available
system.cpu0.iq.fu_full::IntMult                  5392      1.15%     92.52% # attempts to use FU when none available
system.cpu0.iq.fu_full::IntDiv                  11075      2.37%     94.89% # attempts to use FU when none available
system.cpu0.iq.fu_full::FloatAdd                   40      0.01%     94.90% # attempts to use FU when none available
system.cpu0.iq.fu_full::FloatCmp                  111      0.02%     94.93% # attempts to use FU when none available
system.cpu0.iq.fu_full::FloatCvt                   95      0.02%     94.95% # attempts to use FU when none available
system.cpu0.iq.fu_full::FloatMult                   0      0.00%     94.95% # attempts to use FU when none available
system.cpu0.iq.fu_full::FloatMultAcc                0      0.00%     94.95% # attempts to use FU when none available
system.cpu0.iq.fu_full::FloatDiv                    0      0.00%     94.95% # attempts to use FU when none available
system.cpu0.iq.fu_full::FloatMisc                   0      0.00%     94.95% # attempts to use FU when none available
system.cpu0.iq.fu_full::FloatSqrt                   0      0.00%     94.95% # attempts to use FU when none available
system.cpu0.iq.fu_full::SimdAdd                     0      0.00%     94.95% # attempts to use FU when none available
system.cpu0.iq.fu_full::SimdAddAcc                  0      0.00%     94.95% # attempts to use FU when none available
system.cpu0.iq.fu_full::SimdAlu                     0      0.00%     94.95% # attempts to use FU when none available
system.cpu0.iq.fu_full::SimdCmp                     0      0.00%     94.95% # attempts to use FU when none available
system.cpu0.iq.fu_full::SimdCvt                     0      0.00%     94.95% # attempts to use FU when none available
system.cpu0.iq.fu_full::SimdMisc                    0      0.00%     94.95% # attempts to use FU when none available
system.cpu0.iq.fu_full::SimdMult                    0      0.00%     94.95% # attempts to use FU when none available
system.cpu0.iq.fu_full::SimdMultAcc                 0      0.00%     94.95% # attempts to use FU when none available
system.cpu0.iq.fu_full::SimdShift                   0      0.00%     94.95% # attempts to use FU when none available
system.cpu0.iq.fu_full::SimdShiftAcc                0      0.00%     94.95% # attempts to use FU when none available
system.cpu0.iq.fu_full::SimdDiv                     0      0.00%     94.95% # attempts to use FU when none available
system.cpu0.iq.fu_full::SimdSqrt                    0      0.00%     94.95% # attempts to use FU when none available
system.cpu0.iq.fu_full::SimdFloatAdd                0      0.00%     94.95% # attempts to use FU when none available
system.cpu0.iq.fu_full::SimdFloatAlu                0      0.00%     94.95% # attempts to use FU when none available
system.cpu0.iq.fu_full::SimdFloatCmp                0      0.00%     94.95% # attempts to use FU when none available
system.cpu0.iq.fu_full::SimdFloatCvt                0      0.00%     94.95% # attempts to use FU when none available
system.cpu0.iq.fu_full::SimdFloatDiv                0      0.00%     94.95% # attempts to use FU when none available
system.cpu0.iq.fu_full::SimdFloatMisc               0      0.00%     94.95% # attempts to use FU when none available
system.cpu0.iq.fu_full::SimdFloatMult               0      0.00%     94.95% # attempts to use FU when none available
system.cpu0.iq.fu_full::SimdFloatMultAcc            0      0.00%     94.95% # attempts to use FU when none available
system.cpu0.iq.fu_full::SimdFloatSqrt               0      0.00%     94.95% # attempts to use FU when none available
system.cpu0.iq.fu_full::SimdReduceAdd               0      0.00%     94.95% # attempts to use FU when none available
system.cpu0.iq.fu_full::SimdReduceAlu               0      0.00%     94.95% # attempts to use FU when none available
system.cpu0.iq.fu_full::SimdReduceCmp               0      0.00%     94.95% # attempts to use FU when none available
system.cpu0.iq.fu_full::SimdFloatReduceAdd            0      0.00%     94.95% # attempts to use FU when none available
system.cpu0.iq.fu_full::SimdFloatReduceCmp            0      0.00%     94.95% # attempts to use FU when none available
system.cpu0.iq.fu_full::SimdAes                     0      0.00%     94.95% # attempts to use FU when none available
system.cpu0.iq.fu_full::SimdAesMix                  0      0.00%     94.95% # attempts to use FU when none available
system.cpu0.iq.fu_full::SimdSha1Hash                0      0.00%     94.95% # attempts to use FU when none available
system.cpu0.iq.fu_full::SimdSha1Hash2               0      0.00%     94.95% # attempts to use FU when none available
system.cpu0.iq.fu_full::SimdSha256Hash              0      0.00%     94.95% # attempts to use FU when none available
system.cpu0.iq.fu_full::SimdSha256Hash2             0      0.00%     94.95% # attempts to use FU when none available
system.cpu0.iq.fu_full::SimdShaSigma2               0      0.00%     94.95% # attempts to use FU when none available
system.cpu0.iq.fu_full::SimdShaSigma3               0      0.00%     94.95% # attempts to use FU when none available
system.cpu0.iq.fu_full::SimdPredAlu                 0      0.00%     94.95% # attempts to use FU when none available
system.cpu0.iq.fu_full::MemRead                 21796      4.66%     99.61% # attempts to use FU when none available
system.cpu0.iq.fu_full::MemWrite                 1809      0.39%    100.00% # attempts to use FU when none available
system.cpu0.iq.fu_full::FloatMemRead                2      0.00%    100.00% # attempts to use FU when none available
system.cpu0.iq.fu_full::FloatMemWrite               4      0.00%    100.00% # attempts to use FU when none available
system.cpu0.iq.fu_full::IprAccess                   0      0.00%    100.00% # attempts to use FU when none available
system.cpu0.iq.fu_full::InstPrefetch                0      0.00%    100.00% # attempts to use FU when none available
system.cpu0.iq.int_alu_accesses              68362653                       # Number of integer alu accesses
system.cpu0.iq.int_inst_queue_reads         234928461                       # Number of integer instruction queue reads
system.cpu0.iq.int_inst_queue_wakeup_accesses     66070214                       # Number of integer instruction queue wakeup accesses
system.cpu0.iq.int_inst_queue_writes         98522647                       # Number of integer instruction queue writes
system.cpu0.iq.iqInstsAdded                  79989380                       # Number of instructions added to the IQ (excludes non-spec)
system.cpu0.iq.iqInstsIssued                 75215379                       # Number of instructions issued
system.cpu0.iq.iqNonSpecInstsAdded             198296                       # Number of non-speculative instructions added to the IQ
system.cpu0.iq.iqSquashedInstsExamined       27271890                       # Number of squashed instructions iterated over during squash; mainly for profiling
system.cpu0.iq.iqSquashedInstsIssued           358902                       # Number of squashed instructions issued
system.cpu0.iq.iqSquashedNonSpecRemoved           339                       # Number of squashed non-spec instructions that were removed
system.cpu0.iq.iqSquashedOperandsExamined      8323591                       # Number of squashed operands that are examined and possibly removed from graph
system.cpu0.iq.issued_per_cycle::samples     98047604                       # Number of insts issued each cycle
system.cpu0.iq.issued_per_cycle::mean        0.767131                       # Number of insts issued each cycle
system.cpu0.iq.issued_per_cycle::stdev       1.149017                       # Number of insts issued each cycle
system.cpu0.iq.issued_per_cycle::underflows            0      0.00%      0.00% # Number of insts issued each cycle
system.cpu0.iq.issued_per_cycle::0           54425384     55.51%     55.51% # Number of insts issued each cycle
system.cpu0.iq.issued_per_cycle::1           25284392     25.79%     81.30% # Number of insts issued each cycle
system.cpu0.iq.issued_per_cycle::2           11757135     11.99%     93.29% # Number of insts issued each cycle
system.cpu0.iq.issued_per_cycle::3            2843636      2.90%     96.19% # Number of insts issued each cycle
system.cpu0.iq.issued_per_cycle::4            1873692      1.91%     98.10% # Number of insts issued each cycle
system.cpu0.iq.issued_per_cycle::5            1144102      1.17%     99.27% # Number of insts issued each cycle
system.cpu0.iq.issued_per_cycle::6             439942      0.45%     99.72% # Number of insts issued each cycle
system.cpu0.iq.issued_per_cycle::7             203689      0.21%     99.92% # Number of insts issued each cycle
system.cpu0.iq.issued_per_cycle::8              75632      0.08%    100.00% # Number of insts issued each cycle
system.cpu0.iq.issued_per_cycle::overflows            0      0.00%    100.00% # Number of insts issued each cycle
system.cpu0.iq.issued_per_cycle::min_value            0                       # Number of insts issued each cycle
system.cpu0.iq.issued_per_cycle::max_value            8                       # Number of insts issued each cycle
system.cpu0.iq.issued_per_cycle::total       98047604                       # Number of insts issued each cycle
system.cpu0.iq.rate                          0.760737                       # Inst issue rate
system.cpu0.iq.vec_alu_accesses                     0                       # Number of vector alu accesses
system.cpu0.iq.vec_inst_queue_reads                 0                       # Number of vector instruction queue reads
system.cpu0.iq.vec_inst_queue_wakeup_accesses            0                       # Number of vector instruction queue wakeup accesses
system.cpu0.iq.vec_inst_queue_writes                0                       # Number of vector instruction queue writes
system.cpu0.itb.accesses                            0                       # DTB accesses
system.cpu0.itb.hits                                0                       # DTB hits
system.cpu0.itb.misses                              0                       # DTB misses
system.cpu0.itb.read_accesses                       0                       # DTB read accesses
system.cpu0.itb.read_hits                           0                       # DTB read hits
system.cpu0.itb.read_misses                         0                       # DTB read misses
system.cpu0.itb.write_accesses                      0                       # DTB write accesses
system.cpu0.itb.write_hits                          0                       # DTB write hits
system.cpu0.itb.write_misses                        0                       # DTB write misses
system.cpu0.memDep0.conflictingLoads           506959                       # Number of conflicting loads.
system.cpu0.memDep0.conflictingStores          159822                       # Number of conflicting stores.
system.cpu0.memDep0.insertedLoads             8654702                       # Number of loads inserted to the mem dependence unit.
system.cpu0.memDep0.insertedStores            3489001                       # Number of stores inserted to the mem dependence unit.
system.cpu0.misc_regfile_reads               10769284                       # number of misc regfile reads
system.cpu0.misc_regfile_writes               5570590                       # number of misc regfile writes
system.cpu0.numCycles                        98871669                       # number of cpu cycles simulated
system.cpu0.numWorkItemsCompleted                   0                       # number of work items this cpu completed
system.cpu0.numWorkItemsStarted                     0                       # number of work items this cpu started
system.cpu0.quiesceCycles                     1187934                       # Total number of cycles that CPU has spent quiesced or waiting for an interrupt
system.cpu0.rename.BlockCycles               30647378                       # Number of cycles rename is blocking
system.cpu0.rename.CommittedMaps             43414173                       # Number of HB maps that are committed
system.cpu0.rename.IQFullEvents               1075686                       # Number of times rename has blocked due to IQ full
system.cpu0.rename.IdleCycles                19112043                       # Number of cycles rename is idle
system.cpu0.rename.LQFullEvents                107932                       # Number of times rename has blocked due to LQ full
system.cpu0.rename.ROBFullEvents                 6288                       # Number of times rename has blocked due to ROB full
system.cpu0.rename.RenameLookups            110898457                       # Number of register rename lookups that rename has made
system.cpu0.rename.RenamedInsts              84164244                       # Number of instructions processed by rename
system.cpu0.rename.RenamedOperands           68121380                       # Number of destination operands rename has renamed
system.cpu0.rename.RunCycles                 45127213                       # Number of cycles rename is running
system.cpu0.rename.SQFullEvents                128462                       # Number of times rename has blocked due to SQ full
system.cpu0.rename.SquashCycles               1531459                       # Number of cycles rename is squashing
system.cpu0.rename.UnblockCycles              1607953                       # Number of cycles rename is unblocking
system.cpu0.rename.UndoneMaps                24707202                       # Number of HB maps that are undone due to squashing
system.cpu0.rename.fp_rename_lookups         12551380                       # Number of floating rename lookups
system.cpu0.rename.int_rename_lookups        98347077                       # Number of integer rename lookups
system.cpu0.rename.serializeStallCycles         21558                       # count of cycles rename stalled for serializing inst
system.cpu0.rename.serializingInsts               559                       # count of serializing insts renamed
system.cpu0.rename.skidInsts                  2336595                       # count of insts added to the skid buffer
system.cpu0.rename.tempSerializingInsts           559                       # count of temporary serializing insts renamed
system.cpu0.rob.rob_reads                   173964757                       # The number of ROB reads
system.cpu0.rob.rob_writes                  164388637                       # The number of ROB writes
system.cpu0.timesIdled                          10726                       # Number of times that the entire CPU went into an idle state and unscheduled itself
system.cpu0.workload.numSyscalls                  137                       # Number of system calls
system.cpu1.branchPred.BTBCorrect                   0                       # Number of correct BTB predictions (this stat may not work properly.
system.cpu1.branchPred.BTBHitPct            95.100028                       # BTB Hit Percentage
system.cpu1.branchPred.BTBHits                1020235                       # Number of BTB hits
system.cpu1.branchPred.BTBLookups             1072802                       # Number of BTB lookups
system.cpu1.branchPred.RASInCorrect                 0                       # Number of incorrect RAS predictions.
system.cpu1.branchPred.condIncorrect           182281                       # Number of conditional branches incorrect
system.cpu1.branchPred.condPredicted          1334081                       # Number of conditional branches predicted
system.cpu1.branchPred.indirectHits             10825                       # Number of indirect target hits.
system.cpu1.branchPred.indirectLookups          13690                       # Number of indirect predictor lookups.
system.cpu1.branchPred.indirectMisses            2865                       # Number of indirect misses.
system.cpu1.branchPred.lookups                1631924                       # Number of BP lookups
system.cpu1.branchPred.usedRAS                      0                       # Number of times the RAS was used to get a target.
system.cpu1.branchPredindirectMispredicted         1793                       # Number of mispredicted indirect branches.
system.cpu1.commit.amos                         65673                       # Number of atomic instructions committed
system.cpu1.commit.branchMispredicts           175245                       # The number of times a branch was mispredicted
system.cpu1.commit.branches                    923283                       # Number of branches committed
system.cpu1.commit.bw_lim_events                22637                       # number cycles where commit BW limit reached
system.cpu1.commit.commitNonSpecStalls         197251                       # The number of times commit has been forced to stall to communicate backwards
system.cpu1.commit.commitSquashedInsts        1536342                       # The number of squashed insts skipped by commit
system.cpu1.commit.committedInsts             3794451                       # Number of instructions committed
system.cpu1.commit.committedOps               3860190                       # Number of ops (including micro ops) committed
system.cpu1.commit.committed_per_cycle::samples     23914224                       # Number of insts commited each cycle
system.cpu1.commit.committed_per_cycle::mean     0.161418                       # Number of insts commited each cycle
system.cpu1.commit.committed_per_cycle::stdev     0.644723                       # Number of insts commited each cycle
system.cpu1.commit.committed_per_cycle::underflows            0      0.00%      0.00% # Number of insts commited each cycle
system.cpu1.commit.committed_per_cycle::0     21899722     91.58%     91.58% # Number of insts commited each cycle
system.cpu1.commit.committed_per_cycle::1      1058025      4.42%     96.00% # Number of insts commited each cycle
system.cpu1.commit.committed_per_cycle::2       390540      1.63%     97.63% # Number of insts commited each cycle
system.cpu1.commit.committed_per_cycle::3       384356      1.61%     99.24% # Number of insts commited each cycle
system.cpu1.commit.committed_per_cycle::4       120658      0.50%     99.75% # Number of insts commited each cycle
system.cpu1.commit.committed_per_cycle::5        28526      0.12%     99.86% # Number of insts commited each cycle
system.cpu1.commit.committed_per_cycle::6         6661      0.03%     99.89% # Number of insts commited each cycle
system.cpu1.commit.committed_per_cycle::7         3099      0.01%     99.91% # Number of insts commited each cycle
system.cpu1.commit.committed_per_cycle::8        22637      0.09%    100.00% # Number of insts commited each cycle
system.cpu1.commit.committed_per_cycle::overflows            0      0.00%    100.00% # Number of insts commited each cycle
system.cpu1.commit.committed_per_cycle::min_value            0                       # Number of insts commited each cycle
system.cpu1.commit.committed_per_cycle::max_value            8                       # Number of insts commited each cycle
system.cpu1.commit.committed_per_cycle::total     23914224                       # Number of insts commited each cycle
system.cpu1.commit.fp_insts                        24                       # Number of committed floating point instructions.
system.cpu1.commit.function_calls               17150                       # Number of function calls committed.
system.cpu1.commit.int_insts                  3583327                       # Number of committed integer instructions.
system.cpu1.commit.loads                       985379                       # Number of loads committed
system.cpu1.commit.membars                     131351                       # Number of memory barriers committed
system.cpu1.commit.op_class_0::No_OpClass       131351      3.40%      3.40% # Class of committed instruction
system.cpu1.commit.op_class_0::IntAlu         2323418     60.19%     63.59% # Class of committed instruction
system.cpu1.commit.op_class_0::IntMult            638      0.02%     63.61% # Class of committed instruction
system.cpu1.commit.op_class_0::IntDiv              30      0.00%     63.61% # Class of committed instruction
system.cpu1.commit.op_class_0::FloatAdd             0      0.00%     63.61% # Class of committed instruction
system.cpu1.commit.op_class_0::FloatCmp             0      0.00%     63.61% # Class of committed instruction
system.cpu1.commit.op_class_0::FloatCvt             0      0.00%     63.61% # Class of committed instruction
system.cpu1.commit.op_class_0::FloatMult            0      0.00%     63.61% # Class of committed instruction
system.cpu1.commit.op_class_0::FloatMultAcc            0      0.00%     63.61% # Class of committed instruction
system.cpu1.commit.op_class_0::FloatDiv             0      0.00%     63.61% # Class of committed instruction
system.cpu1.commit.op_class_0::FloatMisc            0      0.00%     63.61% # Class of committed instruction
system.cpu1.commit.op_class_0::FloatSqrt            0      0.00%     63.61% # Class of committed instruction
system.cpu1.commit.op_class_0::SimdAdd              0      0.00%     63.61% # Class of committed instruction
system.cpu1.commit.op_class_0::SimdAddAcc            0      0.00%     63.61% # Class of committed instruction
system.cpu1.commit.op_class_0::SimdAlu              0      0.00%     63.61% # Class of committed instruction
system.cpu1.commit.op_class_0::SimdCmp              0      0.00%     63.61% # Class of committed instruction
system.cpu1.commit.op_class_0::SimdCvt              0      0.00%     63.61% # Class of committed instruction
system.cpu1.commit.op_class_0::SimdMisc             0      0.00%     63.61% # Class of committed instruction
system.cpu1.commit.op_class_0::SimdMult             0      0.00%     63.61% # Class of committed instruction
system.cpu1.commit.op_class_0::SimdMultAcc            0      0.00%     63.61% # Class of committed instruction
system.cpu1.commit.op_class_0::SimdShift            0      0.00%     63.61% # Class of committed instruction
system.cpu1.commit.op_class_0::SimdShiftAcc            0      0.00%     63.61% # Class of committed instruction
system.cpu1.commit.op_class_0::SimdDiv              0      0.00%     63.61% # Class of committed instruction
system.cpu1.commit.op_class_0::SimdSqrt             0      0.00%     63.61% # Class of committed instruction
system.cpu1.commit.op_class_0::SimdFloatAdd            0      0.00%     63.61% # Class of committed instruction
system.cpu1.commit.op_class_0::SimdFloatAlu            0      0.00%     63.61% # Class of committed instruction
system.cpu1.commit.op_class_0::SimdFloatCmp            0      0.00%     63.61% # Class of committed instruction
system.cpu1.commit.op_class_0::SimdFloatCvt            0      0.00%     63.61% # Class of committed instruction
system.cpu1.commit.op_class_0::SimdFloatDiv            0      0.00%     63.61% # Class of committed instruction
system.cpu1.commit.op_class_0::SimdFloatMisc            0      0.00%     63.61% # Class of committed instruction
system.cpu1.commit.op_class_0::SimdFloatMult            0      0.00%     63.61% # Class of committed instruction
system.cpu1.commit.op_class_0::SimdFloatMultAcc            0      0.00%     63.61% # Class of committed instruction
system.cpu1.commit.op_class_0::SimdFloatSqrt            0      0.00%     63.61% # Class of committed instruction
system.cpu1.commit.op_class_0::SimdReduceAdd            0      0.00%     63.61% # Class of committed instruction
system.cpu1.commit.op_class_0::SimdReduceAlu            0      0.00%     63.61% # Class of committed instruction
system.cpu1.commit.op_class_0::SimdReduceCmp            0      0.00%     63.61% # Class of committed instruction
system.cpu1.commit.op_class_0::SimdFloatReduceAdd            0      0.00%     63.61% # Class of committed instruction
system.cpu1.commit.op_class_0::SimdFloatReduceCmp            0      0.00%     63.61% # Class of committed instruction
system.cpu1.commit.op_class_0::SimdAes              0      0.00%     63.61% # Class of committed instruction
system.cpu1.commit.op_class_0::SimdAesMix            0      0.00%     63.61% # Class of committed instruction
system.cpu1.commit.op_class_0::SimdSha1Hash            0      0.00%     63.61% # Class of committed instruction
system.cpu1.commit.op_class_0::SimdSha1Hash2            0      0.00%     63.61% # Class of committed instruction
system.cpu1.commit.op_class_0::SimdSha256Hash            0      0.00%     63.61% # Class of committed instruction
system.cpu1.commit.op_class_0::SimdSha256Hash2            0      0.00%     63.61% # Class of committed instruction
system.cpu1.commit.op_class_0::SimdShaSigma2            0      0.00%     63.61% # Class of committed instruction
system.cpu1.commit.op_class_0::SimdShaSigma3            0      0.00%     63.61% # Class of committed instruction
system.cpu1.commit.op_class_0::SimdPredAlu            0      0.00%     63.61% # Class of committed instruction
system.cpu1.commit.op_class_0::MemRead        1051046     27.23%     90.84% # Class of committed instruction
system.cpu1.commit.op_class_0::MemWrite        353683      9.16%    100.00% # Class of committed instruction
system.cpu1.commit.op_class_0::FloatMemRead            6      0.00%    100.00% # Class of committed instruction
system.cpu1.commit.op_class_0::FloatMemWrite           18      0.00%    100.00% # Class of committed instruction
system.cpu1.commit.op_class_0::IprAccess            0      0.00%    100.00% # Class of committed instruction
system.cpu1.commit.op_class_0::InstPrefetch            0      0.00%    100.00% # Class of committed instruction
system.cpu1.commit.op_class_0::total          3860190                       # Class of committed instruction
system.cpu1.commit.refs                       1404753                       # Number of memory references committed
system.cpu1.commit.swp_count                        0                       # Number of s/w prefetches committed
system.cpu1.commit.vec_insts                        0                       # Number of committed Vector instructions.
system.cpu1.committedInsts                    3794451                       # Number of Instructions Simulated
system.cpu1.committedOps                      3860190                       # Number of Ops (including micro ops) Simulated
system.cpu1.cpi                              6.405555                       # CPI: Cycles Per Instruction
system.cpu1.cpi_total                        6.405555                       # CPI: Total CPI of All Threads
system.cpu1.decode.BlockedCycles             19564109                       # Number of cycles decode is blocked
system.cpu1.decode.BranchMispred                 7233                       # Number of times decode detected a branch misprediction
system.cpu1.decode.BranchResolved              940611                       # Number of times decode resolved a branch
system.cpu1.decode.DecodedInsts               6079730                       # Number of instructions handled by decode
system.cpu1.decode.IdleCycles                 1014219                       # Number of cycles decode is idle
system.cpu1.decode.RunCycles                  3248407                       # Number of cycles decode is running
system.cpu1.decode.SquashCycles                175460                       # Number of cycles decode is squashing
system.cpu1.decode.SquashedInsts                13621                       # Number of squashed instructions handled by decode
system.cpu1.decode.UnblockCycles               196737                       # Number of cycles decode is unblocking
system.cpu1.dtb.accesses                            0                       # DTB accesses
system.cpu1.dtb.hits                                0                       # DTB hits
system.cpu1.dtb.misses                              0                       # DTB misses
system.cpu1.dtb.read_accesses                       0                       # DTB read accesses
system.cpu1.dtb.read_hits                           0                       # DTB read hits
system.cpu1.dtb.read_misses                         0                       # DTB read misses
system.cpu1.dtb.write_accesses                      0                       # DTB write accesses
system.cpu1.dtb.write_hits                          0                       # DTB write hits
system.cpu1.dtb.write_misses                        0                       # DTB write misses
system.cpu1.fetch.Branches                    1631924                       # Number of branches that fetch encountered
system.cpu1.fetch.CacheLines                   774388                       # Number of cache lines fetched
system.cpu1.fetch.Cycles                     23133498                       # Number of cycles fetch has run and was not squashing or blocked
system.cpu1.fetch.IcacheSquashes                54986                       # Number of outstanding Icache misses that were squashed
system.cpu1.fetch.IcacheWaitRetryStallCycles           17                       # Number of stall cycles due to full MSHR
system.cpu1.fetch.Insts                       6378351                       # Number of instructions fetch has processed
system.cpu1.fetch.MiscStallCycles                   2                       # Number of cycles fetch has spent waiting on interrupts, or bad addresses, or out of MSHRs
system.cpu1.fetch.SquashCycles                 364992                       # Number of cycles fetch has spent squashing
system.cpu1.fetch.branchRate                 0.067142                       # Number of branch fetches per cycle
system.cpu1.fetch.icacheStallCycles            882919                       # Number of cycles fetch is stalled on an Icache miss
system.cpu1.fetch.predictedBranches           1031060                       # Number of branches that fetch has predicted taken
system.cpu1.fetch.rate                       0.262423                       # Number of inst fetches per cycle
system.cpu1.fetch.rateDist::samples          24198932                       # Number of instructions fetched each cycle (Total)
system.cpu1.fetch.rateDist::mean             0.266315                       # Number of instructions fetched each cycle (Total)
system.cpu1.fetch.rateDist::stdev            0.671054                       # Number of instructions fetched each cycle (Total)
system.cpu1.fetch.rateDist::underflows              0      0.00%      0.00% # Number of instructions fetched each cycle (Total)
system.cpu1.fetch.rateDist::0                19753910     81.63%     81.63% # Number of instructions fetched each cycle (Total)
system.cpu1.fetch.rateDist::1                 3147404     13.01%     94.64% # Number of instructions fetched each cycle (Total)
system.cpu1.fetch.rateDist::2                  858486      3.55%     98.19% # Number of instructions fetched each cycle (Total)
system.cpu1.fetch.rateDist::3                  271981      1.12%     99.31% # Number of instructions fetched each cycle (Total)
system.cpu1.fetch.rateDist::4                   90788      0.38%     99.68% # Number of instructions fetched each cycle (Total)
system.cpu1.fetch.rateDist::5                   60836      0.25%     99.94% # Number of instructions fetched each cycle (Total)
system.cpu1.fetch.rateDist::6                   13490      0.06%     99.99% # Number of instructions fetched each cycle (Total)
system.cpu1.fetch.rateDist::7                     354      0.00%     99.99% # Number of instructions fetched each cycle (Total)
system.cpu1.fetch.rateDist::8                    1683      0.01%    100.00% # Number of instructions fetched each cycle (Total)
system.cpu1.fetch.rateDist::overflows               0      0.00%    100.00% # Number of instructions fetched each cycle (Total)
system.cpu1.fetch.rateDist::min_value               0                       # Number of instructions fetched each cycle (Total)
system.cpu1.fetch.rateDist::max_value               8                       # Number of instructions fetched each cycle (Total)
system.cpu1.fetch.rateDist::total            24198932                       # Number of instructions fetched each cycle (Total)
system.cpu1.fp_regfile_reads                       18                       # number of floating regfile reads
system.cpu1.fp_regfile_writes                      12                       # number of floating regfile writes
system.cpu1.idleCycles                         106633                       # Total number of cycles that the CPU has spent unscheduled due to idling
system.cpu1.iew.branchMispredicts              182052                       # Number of branch mispredicts detected at execute
system.cpu1.iew.exec_branches                 1108521                       # Number of branches executed
system.cpu1.iew.exec_nop                            0                       # number of nop insts executed
system.cpu1.iew.exec_rate                    0.198505                       # Inst execution rate
system.cpu1.iew.exec_refs                     1693921                       # number of memory reference insts executed
system.cpu1.iew.exec_stores                    525626                       # Number of stores executed
system.cpu1.iew.exec_swp                            0                       # number of swp insts executed
system.cpu1.iew.iewBlockCycles               17911016                       # Number of cycles IEW is blocking
system.cpu1.iew.iewDispLoadInsts              1314139                       # Number of dispatched load instructions
system.cpu1.iew.iewDispNonSpecInsts             66062                       # Number of dispatched non-speculative instructions
system.cpu1.iew.iewDispSquashedInsts           165821                       # Number of squashed instructions skipped by dispatch
system.cpu1.iew.iewDispStoreInsts              619559                       # Number of dispatched store instructions
system.cpu1.iew.iewDispatchedInsts            5395993                       # Number of instructions dispatched to IQ
system.cpu1.iew.iewExecLoadInsts              1168295                       # Number of load instructions executed
system.cpu1.iew.iewExecSquashedInsts           222077                       # Number of squashed instructions skipped in execute
system.cpu1.iew.iewExecutedInsts              4824775                       # Number of executed instructions
system.cpu1.iew.iewIQFullEvents                 45270                       # Number of times the IQ has become full, causing a stall
system.cpu1.iew.iewIdleCycles                       0                       # Number of cycles IEW is idle
system.cpu1.iew.iewLSQFullEvents                58369                       # Number of times the LSQ has become full, causing a stall
system.cpu1.iew.iewSquashCycles                175460                       # Number of cycles IEW is squashing
system.cpu1.iew.iewUnblockCycles               217896                       # Number of cycles IEW is unblocking
system.cpu1.iew.lsq.thread0.blockedLoads            0                       # Number of blocked loads due to partial load-store forwarding
system.cpu1.iew.lsq.thread0.cacheBlocked         3144                       # Number of times an access to memory failed due to the cache being blocked
system.cpu1.iew.lsq.thread0.forwLoads           39241                       # Number of loads that had data forwarded from stores
system.cpu1.iew.lsq.thread0.ignoredResponses         1990                       # Number of memory responses ignored because the instruction is squashed
system.cpu1.iew.lsq.thread0.invAddrLoads            0                       # Number of loads ignored due to an invalid address
system.cpu1.iew.lsq.thread0.invAddrSwpfs            0                       # Number of software prefetches ignored due to an invalid address
system.cpu1.iew.lsq.thread0.memOrderViolation          337                       # Number of memory ordering violations
system.cpu1.iew.lsq.thread0.rescheduledLoads          135                       # Number of loads that were rescheduled
system.cpu1.iew.lsq.thread0.squashedLoads       328760                       # Number of loads squashed
system.cpu1.iew.lsq.thread0.squashedStores       200185                       # Number of stores squashed
system.cpu1.iew.memOrderViolationEvents           337                       # Number of memory order violations
system.cpu1.iew.predictedNotTakenIncorrect        86399                       # Number of branches that were predicted not taken incorrectly
system.cpu1.iew.predictedTakenIncorrect         95653                       # Number of branches that were predicted taken incorrectly
system.cpu1.iew.wb_consumers                  2201805                       # num instructions consuming a value
system.cpu1.iew.wb_count                      4719378                       # cumulative count of insts written-back
system.cpu1.iew.wb_fanout                    0.785792                       # average fanout of values written-back
system.cpu1.iew.wb_producers                  1730160                       # num instructions producing a value
system.cpu1.iew.wb_rate                      0.194169                       # insts written-back per cycle
system.cpu1.iew.wb_sent                       4725250                       # cumulative count of insts sent to commit
system.cpu1.int_regfile_reads                 6075585                       # number of integer regfile reads
system.cpu1.int_regfile_writes                3035919                       # number of integer regfile writes
system.cpu1.ipc                              0.156114                       # IPC: Instructions Per Cycle
system.cpu1.ipc_total                        0.156114                       # IPC: Total IPC of All Threads
system.cpu1.iq.FU_type_0::No_OpClass           131437      2.60%      2.60% # Type of FU issued
system.cpu1.iq.FU_type_0::IntAlu              3138601     62.19%     64.79% # Type of FU issued
system.cpu1.iq.FU_type_0::IntMult                 652      0.01%     64.81% # Type of FU issued
system.cpu1.iq.FU_type_0::IntDiv                   30      0.00%     64.81% # Type of FU issued
system.cpu1.iq.FU_type_0::FloatAdd                  0      0.00%     64.81% # Type of FU issued
system.cpu1.iq.FU_type_0::FloatCmp                  0      0.00%     64.81% # Type of FU issued
system.cpu1.iq.FU_type_0::FloatCvt                  0      0.00%     64.81% # Type of FU issued
system.cpu1.iq.FU_type_0::FloatMult                 0      0.00%     64.81% # Type of FU issued
system.cpu1.iq.FU_type_0::FloatMultAcc              0      0.00%     64.81% # Type of FU issued
system.cpu1.iq.FU_type_0::FloatDiv                  0      0.00%     64.81% # Type of FU issued
system.cpu1.iq.FU_type_0::FloatMisc                 0      0.00%     64.81% # Type of FU issued
system.cpu1.iq.FU_type_0::FloatSqrt                 0      0.00%     64.81% # Type of FU issued
system.cpu1.iq.FU_type_0::SimdAdd                   0      0.00%     64.81% # Type of FU issued
system.cpu1.iq.FU_type_0::SimdAddAcc                0      0.00%     64.81% # Type of FU issued
system.cpu1.iq.FU_type_0::SimdAlu                   0      0.00%     64.81% # Type of FU issued
system.cpu1.iq.FU_type_0::SimdCmp                   0      0.00%     64.81% # Type of FU issued
system.cpu1.iq.FU_type_0::SimdCvt                   0      0.00%     64.81% # Type of FU issued
system.cpu1.iq.FU_type_0::SimdMisc                  0      0.00%     64.81% # Type of FU issued
system.cpu1.iq.FU_type_0::SimdMult                  0      0.00%     64.81% # Type of FU issued
system.cpu1.iq.FU_type_0::SimdMultAcc               0      0.00%     64.81% # Type of FU issued
system.cpu1.iq.FU_type_0::SimdShift                 0      0.00%     64.81% # Type of FU issued
system.cpu1.iq.FU_type_0::SimdShiftAcc              0      0.00%     64.81% # Type of FU issued
system.cpu1.iq.FU_type_0::SimdDiv                   0      0.00%     64.81% # Type of FU issued
system.cpu1.iq.FU_type_0::SimdSqrt                  0      0.00%     64.81% # Type of FU issued
system.cpu1.iq.FU_type_0::SimdFloatAdd              0      0.00%     64.81% # Type of FU issued
system.cpu1.iq.FU_type_0::SimdFloatAlu              0      0.00%     64.81% # Type of FU issued
system.cpu1.iq.FU_type_0::SimdFloatCmp              0      0.00%     64.81% # Type of FU issued
system.cpu1.iq.FU_type_0::SimdFloatCvt              0      0.00%     64.81% # Type of FU issued
system.cpu1.iq.FU_type_0::SimdFloatDiv              0      0.00%     64.81% # Type of FU issued
system.cpu1.iq.FU_type_0::SimdFloatMisc             0      0.00%     64.81% # Type of FU issued
system.cpu1.iq.FU_type_0::SimdFloatMult             0      0.00%     64.81% # Type of FU issued
system.cpu1.iq.FU_type_0::SimdFloatMultAcc            0      0.00%     64.81% # Type of FU issued
system.cpu1.iq.FU_type_0::SimdFloatSqrt             0      0.00%     64.81% # Type of FU issued
system.cpu1.iq.FU_type_0::SimdReduceAdd             0      0.00%     64.81% # Type of FU issued
system.cpu1.iq.FU_type_0::SimdReduceAlu             0      0.00%     64.81% # Type of FU issued
system.cpu1.iq.FU_type_0::SimdReduceCmp             0      0.00%     64.81% # Type of FU issued
system.cpu1.iq.FU_type_0::SimdFloatReduceAdd            0      0.00%     64.81% # Type of FU issued
system.cpu1.iq.FU_type_0::SimdFloatReduceCmp            0      0.00%     64.81% # Type of FU issued
system.cpu1.iq.FU_type_0::SimdAes                   0      0.00%     64.81% # Type of FU issued
system.cpu1.iq.FU_type_0::SimdAesMix                0      0.00%     64.81% # Type of FU issued
system.cpu1.iq.FU_type_0::SimdSha1Hash              0      0.00%     64.81% # Type of FU issued
system.cpu1.iq.FU_type_0::SimdSha1Hash2             0      0.00%     64.81% # Type of FU issued
system.cpu1.iq.FU_type_0::SimdSha256Hash            0      0.00%     64.81% # Type of FU issued
system.cpu1.iq.FU_type_0::SimdSha256Hash2            0      0.00%     64.81% # Type of FU issued
system.cpu1.iq.FU_type_0::SimdShaSigma2             0      0.00%     64.81% # Type of FU issued
system.cpu1.iq.FU_type_0::SimdShaSigma3             0      0.00%     64.81% # Type of FU issued
system.cpu1.iq.FU_type_0::SimdPredAlu               0      0.00%     64.81% # Type of FU issued
system.cpu1.iq.FU_type_0::MemRead             1292809     25.62%     90.42% # Type of FU issued
system.cpu1.iq.FU_type_0::MemWrite             483287      9.58%    100.00% # Type of FU issued
system.cpu1.iq.FU_type_0::FloatMemRead             18      0.00%    100.00% # Type of FU issued
system.cpu1.iq.FU_type_0::FloatMemWrite            18      0.00%    100.00% # Type of FU issued
system.cpu1.iq.FU_type_0::IprAccess                 0      0.00%    100.00% # Type of FU issued
system.cpu1.iq.FU_type_0::InstPrefetch              0      0.00%    100.00% # Type of FU issued
system.cpu1.iq.FU_type_0::total               5046852                       # Type of FU issued
system.cpu1.iq.fp_alu_accesses                     42                       # Number of floating point alu accesses
system.cpu1.iq.fp_inst_queue_reads                 78                       # Number of floating instruction queue reads
system.cpu1.iq.fp_inst_queue_wakeup_accesses           30                       # Number of floating instruction queue wakeup accesses
system.cpu1.iq.fp_inst_queue_writes                36                       # Number of floating instruction queue writes
system.cpu1.iq.fu_busy_cnt                      33947                       # FU busy when requested
system.cpu1.iq.fu_busy_rate                  0.006726                       # FU busy rate (busy events/executed inst)
system.cpu1.iq.fu_full::No_OpClass                  0      0.00%      0.00% # attempts to use FU when none available
system.cpu1.iq.fu_full::IntAlu                  11694     34.45%     34.45% # attempts to use FU when none available
system.cpu1.iq.fu_full::IntMult                     0      0.00%     34.45% # attempts to use FU when none available
system.cpu1.iq.fu_full::IntDiv                      0      0.00%     34.45% # attempts to use FU when none available
system.cpu1.iq.fu_full::FloatAdd                    0      0.00%     34.45% # attempts to use FU when none available
system.cpu1.iq.fu_full::FloatCmp                    0      0.00%     34.45% # attempts to use FU when none available
system.cpu1.iq.fu_full::FloatCvt                    0      0.00%     34.45% # attempts to use FU when none available
system.cpu1.iq.fu_full::FloatMult                   0      0.00%     34.45% # attempts to use FU when none available
system.cpu1.iq.fu_full::FloatMultAcc                0      0.00%     34.45% # attempts to use FU when none available
system.cpu1.iq.fu_full::FloatDiv                    0      0.00%     34.45% # attempts to use FU when none available
system.cpu1.iq.fu_full::FloatMisc                   0      0.00%     34.45% # attempts to use FU when none available
system.cpu1.iq.fu_full::FloatSqrt                   0      0.00%     34.45% # attempts to use FU when none available
system.cpu1.iq.fu_full::SimdAdd                     0      0.00%     34.45% # attempts to use FU when none available
system.cpu1.iq.fu_full::SimdAddAcc                  0      0.00%     34.45% # attempts to use FU when none available
system.cpu1.iq.fu_full::SimdAlu                     0      0.00%     34.45% # attempts to use FU when none available
system.cpu1.iq.fu_full::SimdCmp                     0      0.00%     34.45% # attempts to use FU when none available
system.cpu1.iq.fu_full::SimdCvt                     0      0.00%     34.45% # attempts to use FU when none available
system.cpu1.iq.fu_full::SimdMisc                    0      0.00%     34.45% # attempts to use FU when none available
system.cpu1.iq.fu_full::SimdMult                    0      0.00%     34.45% # attempts to use FU when none available
system.cpu1.iq.fu_full::SimdMultAcc                 0      0.00%     34.45% # attempts to use FU when none available
system.cpu1.iq.fu_full::SimdShift                   0      0.00%     34.45% # attempts to use FU when none available
system.cpu1.iq.fu_full::SimdShiftAcc                0      0.00%     34.45% # attempts to use FU when none available
system.cpu1.iq.fu_full::SimdDiv                     0      0.00%     34.45% # attempts to use FU when none available
system.cpu1.iq.fu_full::SimdSqrt                    0      0.00%     34.45% # attempts to use FU when none available
system.cpu1.iq.fu_full::SimdFloatAdd                0      0.00%     34.45% # attempts to use FU when none available
system.cpu1.iq.fu_full::SimdFloatAlu                0      0.00%     34.45% # attempts to use FU when none available
system.cpu1.iq.fu_full::SimdFloatCmp                0      0.00%     34.45% # attempts to use FU when none available
system.cpu1.iq.fu_full::SimdFloatCvt                0      0.00%     34.45% # attempts to use FU when none available
system.cpu1.iq.fu_full::SimdFloatDiv                0      0.00%     34.45% # attempts to use FU when none available
system.cpu1.iq.fu_full::SimdFloatMisc               0      0.00%     34.45% # attempts to use FU when none available
system.cpu1.iq.fu_full::SimdFloatMult               0      0.00%     34.45% # attempts to use FU when none available
system.cpu1.iq.fu_full::SimdFloatMultAcc            0      0.00%     34.45% # attempts to use FU when none available
system.cpu1.iq.fu_full::SimdFloatSqrt               0      0.00%     34.45% # attempts to use FU when none available
system.cpu1.iq.fu_full::SimdReduceAdd               0      0.00%     34.45% # attempts to use FU when none available
system.cpu1.iq.fu_full::SimdReduceAlu               0      0.00%     34.45% # attempts to use FU when none available
system.cpu1.iq.fu_full::SimdReduceCmp               0      0.00%     34.45% # attempts to use FU when none available
system.cpu1.iq.fu_full::SimdFloatReduceAdd            0      0.00%     34.45% # attempts to use FU when none available
system.cpu1.iq.fu_full::SimdFloatReduceCmp            0      0.00%     34.45% # attempts to use FU when none available
system.cpu1.iq.fu_full::SimdAes                     0      0.00%     34.45% # attempts to use FU when none available
system.cpu1.iq.fu_full::SimdAesMix                  0      0.00%     34.45% # attempts to use FU when none available
system.cpu1.iq.fu_full::SimdSha1Hash                0      0.00%     34.45% # attempts to use FU when none available
system.cpu1.iq.fu_full::SimdSha1Hash2               0      0.00%     34.45% # attempts to use FU when none available
system.cpu1.iq.fu_full::SimdSha256Hash              0      0.00%     34.45% # attempts to use FU when none available
system.cpu1.iq.fu_full::SimdSha256Hash2             0      0.00%     34.45% # attempts to use FU when none available
system.cpu1.iq.fu_full::SimdShaSigma2               0      0.00%     34.45% # attempts to use FU when none available
system.cpu1.iq.fu_full::SimdShaSigma3               0      0.00%     34.45% # attempts to use FU when none available
system.cpu1.iq.fu_full::SimdPredAlu                 0      0.00%     34.45% # attempts to use FU when none available
[...]
system.cpu1.dcache.WriteReq_mshr_miss_latency::.cpu1.data   1624058211                       # number of WriteReq MSHR miss cycles
system.cpu1.dcache.WriteReq_mshr_miss_latency::total   1624058211                       # number of WriteReq MSHR miss cycles
system.cpu1.dcache.WriteReq_mshr_miss_rate::.cpu1.data     0.065712                       # mshr miss rate for WriteReq accesses
system.cpu1.dcache.WriteReq_mshr_miss_rate::total     0.065712                       # mshr miss rate for WriteReq accesses
system.cpu1.dcache.WriteReq_avg_mshr_miss_latency::.cpu1.data 71762.547435                       # average WriteReq mshr miss latency
system.cpu1.dcache.WriteReq_avg_mshr_miss_latency::total 71762.547435                       # average WriteReq mshr miss latency
system.cpu1.dcache.LoadLockedReq_hits::.cpu1.data         3169                       # number of LoadLockedReq hits
system.cpu1.dcache.LoadLockedReq_hits::total         3169                       # number of LoadLockedReq hits
system.cpu1.dcache.LoadLockedReq_misses::.cpu1.data         1025                       # number of LoadLockedReq misses
system.cpu1.dcache.LoadLockedReq_misses::total         1025                       # number of LoadLockedReq misses
system.cpu1.dcache.LoadLockedReq_miss_latency::.cpu1.data     31914000                       # number of LoadLockedReq miss cycles
system.cpu1.dcache.LoadLockedReq_miss_latency::total     31914000                       # number of LoadLockedReq miss cycles
system.cpu1.dcache.LoadLockedReq_accesses::.cpu1.data         4194                       # number of LoadLockedReq accesses(hits+misses)
system.cpu1.dcache.LoadLockedReq_accesses::total         4194                       # number of LoadLockedReq accesses(hits+misses)
system.cpu1.dcache.LoadLockedReq_miss_rate::.cpu1.data     0.244397                       # miss rate for LoadLockedReq accesses
system.cpu1.dcache.LoadLockedReq_miss_rate::total     0.244397                       # miss rate for LoadLockedReq accesses
system.cpu1.dcache.LoadLockedReq_avg_miss_latency::.cpu1.data 31135.609756                       # average LoadLockedReq miss latency
system.cpu1.dcache.LoadLockedReq_avg_miss_latency::total 31135.609756                       # average LoadLockedReq miss latency
system.cpu1.dcache.LoadLockedReq_mshr_hits::.cpu1.data          496                       # number of LoadLockedReq MSHR hits
system.cpu1.dcache.LoadLockedReq_mshr_hits::total          496                       # number of LoadLockedReq MSHR hits
system.cpu1.dcache.LoadLockedReq_mshr_misses::.cpu1.data          529                       # number of LoadLockedReq MSHR misses
system.cpu1.dcache.LoadLockedReq_mshr_misses::total          529                       # number of LoadLockedReq MSHR misses
system.cpu1.dcache.LoadLockedReq_mshr_miss_latency::.cpu1.data      3151000                       # number of LoadLockedReq MSHR miss cycles
system.cpu1.dcache.LoadLockedReq_mshr_miss_latency::total      3151000                       # number of LoadLockedReq MSHR miss cycles
system.cpu1.dcache.LoadLockedReq_mshr_miss_rate::.cpu1.data     0.126133                       # mshr miss rate for LoadLockedReq accesses
system.cpu1.dcache.LoadLockedReq_mshr_miss_rate::total     0.126133                       # mshr miss rate for LoadLockedReq accesses
system.cpu1.dcache.LoadLockedReq_avg_mshr_miss_latency::.cpu1.data  5956.521739                       # average LoadLockedReq mshr miss latency
system.cpu1.dcache.LoadLockedReq_avg_mshr_miss_latency::total  5956.521739                       # average LoadLockedReq mshr miss latency
system.cpu1.dcache.StoreCondReq_hits::.cpu1.data         1468                       # number of StoreCondReq hits
system.cpu1.dcache.StoreCondReq_hits::total         1468                       # number of StoreCondReq hits
system.cpu1.dcache.StoreCondReq_misses::.cpu1.data         1446                       # number of StoreCondReq misses
system.cpu1.dcache.StoreCondReq_misses::total         1446                       # number of StoreCondReq misses
system.cpu1.dcache.StoreCondReq_miss_latency::.cpu1.data      9964500                       # number of StoreCondReq miss cycles
system.cpu1.dcache.StoreCondReq_miss_latency::total      9964500                       # number of StoreCondReq miss cycles
system.cpu1.dcache.StoreCondReq_accesses::.cpu1.data         2914                       # number of StoreCondReq accesses(hits+misses)
system.cpu1.dcache.StoreCondReq_accesses::total         2914                       # number of StoreCondReq accesses(hits+misses)
system.cpu1.dcache.StoreCondReq_miss_rate::.cpu1.data     0.496225                       # miss rate for StoreCondReq accesses
system.cpu1.dcache.StoreCondReq_miss_rate::total     0.496225                       # miss rate for StoreCondReq accesses
system.cpu1.dcache.StoreCondReq_avg_miss_latency::.cpu1.data  6891.078838                       # average StoreCondReq miss latency
system.cpu1.dcache.StoreCondReq_avg_miss_latency::total  6891.078838                       # average StoreCondReq miss latency
system.cpu1.dcache.StoreCondReq_mshr_misses::.cpu1.data         1381                       # number of StoreCondReq MSHR misses
system.cpu1.dcache.StoreCondReq_mshr_misses::total         1381                       # number of StoreCondReq MSHR misses
system.cpu1.dcache.StoreCondReq_mshr_miss_latency::.cpu1.data      8847500                       # number of StoreCondReq MSHR miss cycles
system.cpu1.dcache.StoreCondReq_mshr_miss_latency::total      8847500                       # number of StoreCondReq MSHR miss cycles
system.cpu1.dcache.StoreCondReq_mshr_miss_rate::.cpu1.data     0.473919                       # mshr miss rate for StoreCondReq accesses
system.cpu1.dcache.StoreCondReq_mshr_miss_rate::total     0.473919                       # mshr miss rate for StoreCondReq accesses
system.cpu1.dcache.StoreCondReq_avg_mshr_miss_latency::.cpu1.data  6406.589428                       # average StoreCondReq mshr miss latency
system.cpu1.dcache.StoreCondReq_avg_mshr_miss_latency::total  6406.589428                       # average StoreCondReq mshr miss latency
system.cpu1.dcache.StoreCondFailReq_miss_latency::.cpu1.data      3312000                       # number of StoreCondFailReq miss cycles
system.cpu1.dcache.StoreCondFailReq_miss_latency::total      3312000                       # number of StoreCondFailReq miss cycles
system.cpu1.dcache.StoreCondFailReq_avg_miss_latency::.cpu1.data          inf                       # average StoreCondFailReq miss latency
system.cpu1.dcache.StoreCondFailReq_avg_miss_latency::total          inf                       # average StoreCondFailReq miss latency
system.cpu1.dcache.StoreCondFailReq_mshr_miss_latency::.cpu1.data      3048000                       # number of StoreCondFailReq MSHR miss cycles
system.cpu1.dcache.StoreCondFailReq_mshr_miss_latency::total      3048000                       # number of StoreCondFailReq MSHR miss cycles
system.cpu1.dcache.StoreCondFailReq_avg_mshr_miss_latency::.cpu1.data          inf                       # average StoreCondFailReq mshr miss latency
system.cpu1.dcache.StoreCondFailReq_avg_mshr_miss_latency::total          inf                       # average StoreCondFailReq mshr miss latency
system.cpu1.dcache.SwapReq_hits::.cpu1.data         1132                       # number of SwapReq hits
system.cpu1.dcache.SwapReq_hits::total           1132                       # number of SwapReq hits
system.cpu1.dcache.SwapReq_misses::.cpu1.data         4314                       # number of SwapReq misses
system.cpu1.dcache.SwapReq_misses::total         4314                       # number of SwapReq misses
system.cpu1.dcache.SwapReq_miss_latency::.cpu1.data    130046500                       # number of SwapReq miss cycles
system.cpu1.dcache.SwapReq_miss_latency::total    130046500                       # number of SwapReq miss cycles
system.cpu1.dcache.SwapReq_accesses::.cpu1.data         5446                       # number of SwapReq accesses(hits+misses)
system.cpu1.dcache.SwapReq_accesses::total         5446                       # number of SwapReq accesses(hits+misses)
system.cpu1.dcache.SwapReq_miss_rate::.cpu1.data     0.792141                       # miss rate for SwapReq accesses
system.cpu1.dcache.SwapReq_miss_rate::total     0.792141                       # miss rate for SwapReq accesses
system.cpu1.dcache.SwapReq_avg_miss_latency::.cpu1.data 30145.224849                       # average SwapReq miss latency
system.cpu1.dcache.SwapReq_avg_miss_latency::total 30145.224849                       # average SwapReq miss latency
system.cpu1.dcache.SwapReq_mshr_hits::.cpu1.data            5                       # number of SwapReq MSHR hits
system.cpu1.dcache.SwapReq_mshr_hits::total            5                       # number of SwapReq MSHR hits
system.cpu1.dcache.SwapReq_mshr_misses::.cpu1.data         4309                       # number of SwapReq MSHR misses
system.cpu1.dcache.SwapReq_mshr_misses::total         4309                       # number of SwapReq MSHR misses
system.cpu1.dcache.SwapReq_mshr_miss_latency::.cpu1.data    125724000                       # number of SwapReq MSHR miss cycles
system.cpu1.dcache.SwapReq_mshr_miss_latency::total    125724000                       # number of SwapReq MSHR miss cycles
system.cpu1.dcache.SwapReq_mshr_miss_rate::.cpu1.data     0.791223                       # mshr miss rate for SwapReq accesses
system.cpu1.dcache.SwapReq_mshr_miss_rate::total     0.791223                       # mshr miss rate for SwapReq accesses
system.cpu1.dcache.SwapReq_avg_mshr_miss_latency::.cpu1.data 29177.071246                       # average SwapReq mshr miss latency
system.cpu1.dcache.SwapReq_avg_mshr_miss_latency::total 29177.071246                       # average SwapReq mshr miss latency
system.cpu1.dcache.tags.pwrStateResidencyTicks::UNDEFINED  75075793000                       # Cumulative time (in ticks) in various power states
system.cpu1.dcache.tags.tagsinuse           31.589359                       # Cycle average of tags in use
system.cpu1.dcache.tags.total_refs            5825951                       # Total number of references to valid blocks.
system.cpu1.dcache.tags.sampled_refs          2951498                       # Sample count of references to valid blocks.
system.cpu1.dcache.tags.avg_refs             1.973896                       # Average number of references to valid blocks.
system.cpu1.dcache.tags.warmup_cycle                0                       # Cycle when the warmup percentage was hit.
system.cpu1.dcache.tags.occ_blocks::.cpu1.data    31.589359                       # Average occupied blocks per requestor
system.cpu1.dcache.tags.occ_percent::.cpu1.data     0.987167                       # Average percentage of cache occupancy
system.cpu1.dcache.tags.occ_percent::total     0.987167                       # Average percentage of cache occupancy
system.cpu1.dcache.tags.occ_task_id_blocks::1024           27                       # Occupied blocks per task id
system.cpu1.dcache.tags.age_task_id_blocks_1024::1           27                       # Occupied blocks per task id
system.cpu1.dcache.tags.occ_task_id_percent::1024     0.843750                       # Percentage of cache occupancy per task id
system.cpu1.dcache.tags.tag_accesses         20174948                       # Number of tag accesses
system.cpu1.dcache.tags.data_accesses        20174948                       # Number of data accesses
system.cpu_clk_domain.clock                       500                       # Clock period in ticks
system.tol2bus.pwrStateResidencyTicks::UNDEFINED  75075793000                       # Cumulative time (in ticks) in various power states
system.tol2bus.trans_dist::ReadResp          11838280                       # Transaction distribution
system.tol2bus.trans_dist::ReadRespWithInvalidate           12                       # Transaction distribution
system.tol2bus.trans_dist::WritebackDirty       459543                       # Transaction distribution
system.tol2bus.trans_dist::WritebackClean     11667024                       # Transaction distribution
system.tol2bus.trans_dist::CleanEvict        15893411                       # Transaction distribution
system.tol2bus.trans_dist::UpgradeReq            8571                       # Transaction distribution
system.tol2bus.trans_dist::SCUpgradeReq          4636                       # Transaction distribution
system.tol2bus.trans_dist::UpgradeResp          13207                       # Transaction distribution
system.tol2bus.trans_dist::SCUpgradeFailReq          743                       # Transaction distribution
system.tol2bus.trans_dist::UpgradeFailResp          743                       # Transaction distribution
system.tol2bus.trans_dist::ReadExReq           115184                       # Transaction distribution
system.tol2bus.trans_dist::ReadExResp          115184                       # Transaction distribution
system.tol2bus.trans_dist::ReadCleanReq        121166                       # Transaction distribution
system.tol2bus.trans_dist::ReadSharedReq     11717128                       # Transaction distribution
system.tol2bus.pkt_count_system.cpu0.icache.mem_side::system.l2.cpu_side       218050                       # Packet count per connected master and slave (bytes)
system.tol2bus.pkt_count_system.cpu0.dcache.mem_side::system.l2.cpu_side      8923728                       # Packet count per connected master and slave (bytes)
system.tol2bus.pkt_count_system.cpu1.icache.mem_side::system.l2.cpu_side        49383                       # Packet count per connected master and slave (bytes)
system.tol2bus.pkt_count_system.cpu1.dcache.mem_side::system.l2.cpu_side      8843305                       # Packet count per connected master and slave (bytes)
system.tol2bus.pkt_count_system.cpu2.icache.mem_side::system.l2.cpu_side        48159                       # Packet count per connected master and slave (bytes)
system.tol2bus.pkt_count_system.cpu2.dcache.mem_side::system.l2.cpu_side      8839239                       # Packet count per connected master and slave (bytes)
system.tol2bus.pkt_count_system.cpu3.icache.mem_side::system.l2.cpu_side        47904                       # Packet count per connected master and slave (bytes)
system.tol2bus.pkt_count_system.cpu3.dcache.mem_side::system.l2.cpu_side      8853221                       # Packet count per connected master and slave (bytes)
system.tol2bus.pkt_count::total              35822989                       # Packet count per connected master and slave (bytes)
system.tol2bus.pkt_size_system.cpu0.icache.mem_side::system.l2.cpu_side      9303424                       # Cumulative packet size per connected master and slave (bytes)
system.tol2bus.pkt_size_system.cpu0.dcache.mem_side::system.l2.cpu_side    380337408                       # Cumulative packet size per connected master and slave (bytes)
system.tol2bus.pkt_size_system.cpu1.icache.mem_side::system.l2.cpu_side      2107008                       # Cumulative packet size per connected master and slave (bytes)
system.tol2bus.pkt_size_system.cpu1.dcache.mem_side::system.l2.cpu_side    376839296                       # Cumulative packet size per connected master and slave (bytes)
system.tol2bus.pkt_size_system.cpu2.icache.mem_side::system.l2.cpu_side      2054784                       # Cumulative packet size per connected master and slave (bytes)
system.tol2bus.pkt_size_system.cpu2.dcache.mem_side::system.l2.cpu_side    376663616                       # Cumulative packet size per connected master and slave (bytes)
system.tol2bus.pkt_size_system.cpu3.icache.mem_side::system.l2.cpu_side      2043904                       # Cumulative packet size per connected master and slave (bytes)
system.tol2bus.pkt_size_system.cpu3.dcache.mem_side::system.l2.cpu_side    377227456                       # Cumulative packet size per connected master and slave (bytes)
system.tol2bus.pkt_size::total             1526576896                       # Cumulative packet size per connected master and slave (bytes)
system.tol2bus.snoops                        16131843                       # Total snoops (count)
system.tol2bus.snoopTraffic                  14593408                       # Total snoop traffic (bytes)
system.tol2bus.snoop_fanout::samples         28061081                       # Request fanout histogram
system.tol2bus.snoop_fanout::mean            0.610409                       # Request fanout histogram
system.tol2bus.snoop_fanout::stdev           0.732868                       # Request fanout histogram
system.tol2bus.snoop_fanout::underflows             0      0.00%      0.00% # Request fanout histogram
system.tol2bus.snoop_fanout::0               14576666     51.95%     51.95% # Request fanout histogram
system.tol2bus.snoop_fanout::1               10357880     36.91%     88.86% # Request fanout histogram
system.tol2bus.snoop_fanout::2                2645789      9.43%     98.29% # Request fanout histogram
system.tol2bus.snoop_fanout::3                 443710      1.58%     99.87% # Request fanout histogram
system.tol2bus.snoop_fanout::4                  37036      0.13%    100.00% # Request fanout histogram
system.tol2bus.snoop_fanout::5                      0      0.00%    100.00% # Request fanout histogram
system.tol2bus.snoop_fanout::6                      0      0.00%    100.00% # Request fanout histogram
system.tol2bus.snoop_fanout::7                      0      0.00%    100.00% # Request fanout histogram
system.tol2bus.snoop_fanout::8                      0      0.00%    100.00% # Request fanout histogram
system.tol2bus.snoop_fanout::overflows              0      0.00%    100.00% # Request fanout histogram
system.tol2bus.snoop_fanout::min_value              0                       # Request fanout histogram
system.tol2bus.snoop_fanout::max_value              4                       # Request fanout histogram
system.tol2bus.snoop_fanout::total           28061081                       # Request fanout histogram
system.tol2bus.reqLayer0.occupancy        23873636194                       # Layer occupancy (ticks)
system.tol2bus.reqLayer0.utilization             31.8                       # Layer utilization (%)
system.tol2bus.respLayer5.occupancy        4503402090                       # Layer occupancy (ticks)
system.tol2bus.respLayer5.utilization             6.0                       # Layer utilization (%)
system.tol2bus.respLayer4.occupancy          25443851                       # Layer occupancy (ticks)
system.tol2bus.respLayer4.utilization             0.0                       # Layer utilization (%)
system.tol2bus.respLayer7.occupancy        4511518374                       # Layer occupancy (ticks)
system.tol2bus.respLayer7.utilization             6.0                       # Layer utilization (%)
system.tol2bus.respLayer6.occupancy          25233091                       # Layer occupancy (ticks)
system.tol2bus.respLayer6.utilization             0.0                       # Layer utilization (%)
system.tol2bus.respLayer1.occupancy        4540817656                       # Layer occupancy (ticks)
system.tol2bus.respLayer1.utilization             6.0                       # Layer utilization (%)
system.tol2bus.respLayer0.occupancy         109202586                       # Layer occupancy (ticks)
system.tol2bus.respLayer0.utilization             0.1                       # Layer utilization (%)
system.tol2bus.respLayer3.occupancy        4505754179                       # Layer occupancy (ticks)
system.tol2bus.respLayer3.utilization             6.0                       # Layer utilization (%)
system.tol2bus.respLayer2.occupancy          26136606                       # Layer occupancy (ticks)
system.tol2bus.respLayer2.utilization             0.0                       # Layer utilization (%)

---------- End Simulation Statistics   ----------
