
---------- Begin Simulation Statistics ----------
final_tick                               2198062559000                       # Number of ticks from beginning of simulation (restored from checkpoints and never reset)
host_inst_rate                                  61916                       # Simulator instruction rate (inst/s)
host_mem_usage                                 702440                       # Number of bytes of host memory used
host_op_rate                                    62116                       # Simulator op (including micro ops) rate (op/s)
host_seconds                                 38037.51                       # Real time elapsed on the host
host_tick_rate                               57786704                       # Simulator tick rate (ticks/s)
sim_freq                                 1000000000000                       # Frequency of simulated ticks
sim_insts                                  2355139636                       # Number of instructions simulated
sim_ops                                    2362748540                       # Number of ops (including micro ops) simulated
sim_seconds                                  2.198063                       # Number of seconds simulated
sim_ticks                                2198062559000                       # Number of ticks simulated
system.cpu0.branchPred.BTBCorrect                   0                       # Number of correct BTB predictions (this stat may not work properly.
system.cpu0.branchPred.BTBHitPct            87.416085                       # BTB Hit Percentage
system.cpu0.branchPred.BTBHits              293281492                       # Number of BTB hits
system.cpu0.branchPred.BTBLookups           335500602                       # Number of BTB lookups
system.cpu0.branchPred.RASInCorrect                 0                       # Number of incorrect RAS predictions.
system.cpu0.branchPred.condIncorrect         19425741                       # Number of conditional branches incorrect
system.cpu0.branchPred.condPredicted        462513785                       # Number of conditional branches predicted
system.cpu0.branchPred.indirectHits          39150082                       # Number of indirect target hits.
system.cpu0.branchPred.indirectLookups       39702965                       # Number of indirect predictor lookups.
system.cpu0.branchPred.indirectMisses          552883                       # Number of indirect misses.
system.cpu0.branchPred.lookups              588321649                       # Number of BP lookups
system.cpu0.branchPred.usedRAS                      0                       # Number of times the RAS was used to get a target.
system.cpu0.branchPredindirectMispredicted      3974097                       # Number of mispredicted indirect branches.
system.cpu0.commit.amos                       3801841                       # Number of atomic instructions committed
system.cpu0.commit.branchMispredicts         13732774                       # The number of times a branch was mispredicted
system.cpu0.commit.branches                 555090691                       # Number of branches committed
system.cpu0.commit.bw_lim_events             59124746                       # number cycles where commit BW limit reached
system.cpu0.commit.commitNonSpecStalls       11419446                       # The number of times commit has been forced to stall to communicate backwards
system.cpu0.commit.commitSquashedInsts      100149963                       # The number of squashed insts skipped by commit
system.cpu0.commit.committedInsts          2225057229                       # Number of instructions committed
system.cpu0.commit.committedOps            2228864373                       # Number of ops (including micro ops) committed
system.cpu0.commit.committed_per_cycle::samples   4081840388                       # Number of insts commited each cycle
system.cpu0.commit.committed_per_cycle::mean     0.546044                       # Number of insts commited each cycle
system.cpu0.commit.committed_per_cycle::stdev     1.293832                       # Number of insts commited each cycle
system.cpu0.commit.committed_per_cycle::underflows            0      0.00%      0.00% # Number of insts commited each cycle
system.cpu0.commit.committed_per_cycle::0   2989879744     73.25%     73.25% # Number of insts commited each cycle
system.cpu0.commit.committed_per_cycle::1    645225261     15.81%     89.06% # Number of insts commited each cycle
system.cpu0.commit.committed_per_cycle::2    165312458      4.05%     93.11% # Number of insts commited each cycle
system.cpu0.commit.committed_per_cycle::3    160080392      3.92%     97.03% # Number of insts commited each cycle
system.cpu0.commit.committed_per_cycle::4     35497808      0.87%     97.90% # Number of insts commited each cycle
system.cpu0.commit.committed_per_cycle::5     10984908      0.27%     98.17% # Number of insts commited each cycle
system.cpu0.commit.committed_per_cycle::6      7286217      0.18%     98.34% # Number of insts commited each cycle
system.cpu0.commit.committed_per_cycle::7      8448854      0.21%     98.55% # Number of insts commited each cycle
system.cpu0.commit.committed_per_cycle::8     59124746      1.45%    100.00% # Number of insts commited each cycle
system.cpu0.commit.committed_per_cycle::overflows            0      0.00%    100.00% # Number of insts commited each cycle
system.cpu0.commit.committed_per_cycle::min_value            0                       # Number of insts commited each cycle
system.cpu0.commit.committed_per_cycle::max_value            8                       # Number of insts commited each cycle
system.cpu0.commit.committed_per_cycle::total   4081840388                       # Number of insts commited each cycle
system.cpu0.commit.fp_insts                        50                       # Number of committed floating point instructions.
system.cpu0.commit.function_calls            44168854                       # Number of function calls committed.
system.cpu0.commit.int_insts               2151151762                       # Number of committed integer instructions.
system.cpu0.commit.loads                    691590871                       # Number of loads committed
system.cpu0.commit.membars                    7608873                       # Number of memory barriers committed
system.cpu0.commit.op_class_0::No_OpClass      7608879      0.34%      0.34% # Class of committed instruction
system.cpu0.commit.op_class_0::IntAlu      1238952882     55.59%     55.93% # Class of committed instruction
system.cpu0.commit.op_class_0::IntMult       18316825      0.82%     56.75% # Class of committed instruction
system.cpu0.commit.op_class_0::IntDiv         3801411      0.17%     56.92% # Class of committed instruction
system.cpu0.commit.op_class_0::FloatAdd             0      0.00%     56.92% # Class of committed instruction
system.cpu0.commit.op_class_0::FloatCmp             4      0.00%     56.92% # Class of committed instruction
system.cpu0.commit.op_class_0::FloatCvt            12      0.00%     56.92% # Class of committed instruction
system.cpu0.commit.op_class_0::FloatMult            0      0.00%     56.92% # Class of committed instruction
system.cpu0.commit.op_class_0::FloatMultAcc            0      0.00%     56.92% # Class of committed instruction
system.cpu0.commit.op_class_0::FloatDiv             2      0.00%     56.92% # Class of committed instruction
system.cpu0.commit.op_class_0::FloatMisc            4      0.00%     56.92% # Class of committed instruction
system.cpu0.commit.op_class_0::FloatSqrt            0      0.00%     56.92% # Class of committed instruction
system.cpu0.commit.op_class_0::SimdAdd              0      0.00%     56.92% # Class of committed instruction
system.cpu0.commit.op_class_0::SimdAddAcc            0      0.00%     56.92% # Class of committed instruction
system.cpu0.commit.op_class_0::SimdAlu              0      0.00%     56.92% # Class of committed instruction
system.cpu0.commit.op_class_0::SimdCmp              0      0.00%     56.92% # Class of committed instruction
system.cpu0.commit.op_class_0::SimdCvt              0      0.00%     56.92% # Class of committed instruction
system.cpu0.commit.op_class_0::SimdMisc             0      0.00%     56.92% # Class of committed instruction
system.cpu0.commit.op_class_0::SimdMult             0      0.00%     56.92% # Class of committed instruction
system.cpu0.commit.op_class_0::SimdMultAcc            0      0.00%     56.92% # Class of committed instruction
system.cpu0.commit.op_class_0::SimdShift            0      0.00%     56.92% # Class of committed instruction
system.cpu0.commit.op_class_0::SimdShiftAcc            0      0.00%     56.92% # Class of committed instruction
system.cpu0.commit.op_class_0::SimdDiv              0      0.00%     56.92% # Class of committed instruction
system.cpu0.commit.op_class_0::SimdSqrt             0      0.00%     56.92% # Class of committed instruction
system.cpu0.commit.op_class_0::SimdFloatAdd            0      0.00%     56.92% # Class of committed instruction
system.cpu0.commit.op_class_0::SimdFloatAlu            0      0.00%     56.92% # Class of committed instruction
system.cpu0.commit.op_class_0::SimdFloatCmp            0      0.00%     56.92% # Class of committed instruction
system.cpu0.commit.op_class_0::SimdFloatCvt            0      0.00%     56.92% # Class of committed instruction
system.cpu0.commit.op_class_0::SimdFloatDiv            0      0.00%     56.92% # Class of committed instruction
system.cpu0.commit.op_class_0::SimdFloatMisc            0      0.00%     56.92% # Class of committed instruction
system.cpu0.commit.op_class_0::SimdFloatMult            0      0.00%     56.92% # Class of committed instruction
system.cpu0.commit.op_class_0::SimdFloatMultAcc            0      0.00%     56.92% # Class of committed instruction
system.cpu0.commit.op_class_0::SimdFloatSqrt            0      0.00%     56.92% # Class of committed instruction
system.cpu0.commit.op_class_0::SimdReduceAdd            0      0.00%     56.92% # Class of committed instruction
system.cpu0.commit.op_class_0::SimdReduceAlu            0      0.00%     56.92% # Class of committed instruction
system.cpu0.commit.op_class_0::SimdReduceCmp            0      0.00%     56.92% # Class of committed instruction
system.cpu0.commit.op_class_0::SimdFloatReduceAdd            0      0.00%     56.92% # Class of committed instruction
system.cpu0.commit.op_class_0::SimdFloatReduceCmp            0      0.00%     56.92% # Class of committed instruction
system.cpu0.commit.op_class_0::SimdAes              0      0.00%     56.92% # Class of committed instruction
system.cpu0.commit.op_class_0::SimdAesMix            0      0.00%     56.92% # Class of committed instruction
system.cpu0.commit.op_class_0::SimdSha1Hash            0      0.00%     56.92% # Class of committed instruction
system.cpu0.commit.op_class_0::SimdSha1Hash2            0      0.00%     56.92% # Class of committed instruction
system.cpu0.commit.op_class_0::SimdSha256Hash            0      0.00%     56.92% # Class of committed instruction
system.cpu0.commit.op_class_0::SimdSha256Hash2            0      0.00%     56.92% # Class of committed instruction
system.cpu0.commit.op_class_0::SimdShaSigma2            0      0.00%     56.92% # Class of committed instruction
system.cpu0.commit.op_class_0::SimdShaSigma3            0      0.00%     56.92% # Class of committed instruction
system.cpu0.commit.op_class_0::SimdPredAlu            0      0.00%     56.92% # Class of committed instruction
system.cpu0.commit.op_class_0::MemRead      695392704     31.20%     88.12% # Class of committed instruction
system.cpu0.commit.op_class_0::MemWrite     264791622     11.88%    100.00% # Class of committed instruction
system.cpu0.commit.op_class_0::FloatMemRead            8      0.00%    100.00% # Class of committed instruction
system.cpu0.commit.op_class_0::FloatMemWrite           20      0.00%    100.00% # Class of committed instruction
system.cpu0.commit.op_class_0::IprAccess            0      0.00%    100.00% # Class of committed instruction
system.cpu0.commit.op_class_0::InstPrefetch            0      0.00%    100.00% # Class of committed instruction
system.cpu0.commit.op_class_0::total       2228864373                       # Class of committed instruction
system.cpu0.commit.refs                     960184354                       # Number of memory references committed
system.cpu0.commit.swp_count                        0                       # Number of s/w prefetches committed
system.cpu0.commit.vec_insts                        0                       # Number of committed Vector instructions.
system.cpu0.committedInsts                 2225057229                       # Number of Instructions Simulated
system.cpu0.committedOps                   2228864373                       # Number of Ops (including micro ops) Simulated
system.cpu0.cpi                              1.971657                       # CPI: Cycles Per Instruction
system.cpu0.cpi_total                        1.971657                       # CPI: Total CPI of All Threads
system.cpu0.decode.BlockedCycles            748897666                       # Number of cycles decode is blocked
system.cpu0.decode.BranchMispred              5717905                       # Number of times decode detected a branch misprediction
system.cpu0.decode.BranchResolved           291844701                       # Number of times decode resolved a branch
system.cpu0.decode.DecodedInsts            2365376547                       # Number of instructions handled by decode
system.cpu0.decode.IdleCycles              1717206111                       # Number of cycles decode is idle
system.cpu0.decode.RunCycles               1610828718                       # Number of cycles decode is running
system.cpu0.decode.SquashCycles              13759765                       # Number of cycles decode is squashing
system.cpu0.decode.SquashedInsts             18480192                       # Number of squashed instructions handled by decode
system.cpu0.decode.UnblockCycles             11697347                       # Number of cycles decode is unblocking
system.cpu0.dtb.accesses                            0                       # DTB accesses
system.cpu0.dtb.hits                                0                       # DTB hits
system.cpu0.dtb.misses                              0                       # DTB misses
system.cpu0.dtb.read_accesses                       0                       # DTB read accesses
system.cpu0.dtb.read_hits                           0                       # DTB read hits
system.cpu0.dtb.read_misses                         0                       # DTB read misses
system.cpu0.dtb.write_accesses                      0                       # DTB write accesses
system.cpu0.dtb.write_hits                          0                       # DTB write hits
system.cpu0.dtb.write_misses                        0                       # DTB write misses
system.cpu0.fetch.Branches                  588321649                       # Number of branches that fetch encountered
system.cpu0.fetch.CacheLines                423305512                       # Number of cache lines fetched
system.cpu0.fetch.Cycles                   2396515925                       # Number of cycles fetch has run and was not squashing or blocked
system.cpu0.fetch.IcacheSquashes              5693764                       # Number of outstanding Icache misses that were squashed
system.cpu0.fetch.IcacheWaitRetryStallCycles           31                       # Number of stall cycles due to full MSHR
system.cpu0.fetch.Insts                    2394869053                       # Number of instructions fetch has processed
system.cpu0.fetch.MiscStallCycles                  71                       # Number of cycles fetch has spent waiting on interrupts, or bad addresses, or out of MSHRs
system.cpu0.fetch.PendingTrapStallCycles          400                       # Number of stall cycles due to pending traps
system.cpu0.fetch.SquashCycles               38905588                       # Number of cycles fetch has spent squashing
system.cpu0.fetch.branchRate                 0.134104                       # Number of branch fetches per cycle
system.cpu0.fetch.icacheStallCycles        1686420386                       # Number of cycles fetch is stalled on an Icache miss
system.cpu0.fetch.predictedBranches         332431574                       # Number of branches that fetch has predicted taken
system.cpu0.fetch.rate                       0.545895                       # Number of inst fetches per cycle
system.cpu0.fetch.rateDist::samples        4102389607                       # Number of instructions fetched each cycle (Total)
system.cpu0.fetch.rateDist::mean             0.584702                       # Number of instructions fetched each cycle (Total)
system.cpu0.fetch.rateDist::stdev            0.886188                       # Number of instructions fetched each cycle (Total)
system.cpu0.fetch.rateDist::underflows              0      0.00%      0.00% # Number of instructions fetched each cycle (Total)
system.cpu0.fetch.rateDist::0              2417037139     58.92%     58.92% # Number of instructions fetched each cycle (Total)
system.cpu0.fetch.rateDist::1              1248479084     30.43%     89.35% # Number of instructions fetched each cycle (Total)
system.cpu0.fetch.rateDist::2               229990104      5.61%     94.96% # Number of instructions fetched each cycle (Total)
system.cpu0.fetch.rateDist::3               167653407      4.09%     99.04% # Number of instructions fetched each cycle (Total)
system.cpu0.fetch.rateDist::4                24363076      0.59%     99.64% # Number of instructions fetched each cycle (Total)
system.cpu0.fetch.rateDist::5                 7019300      0.17%     99.81% # Number of instructions fetched each cycle (Total)
system.cpu0.fetch.rateDist::6                  229243      0.01%     99.81% # Number of instructions fetched each cycle (Total)
system.cpu0.fetch.rateDist::7                 7613031      0.19%    100.00% # Number of instructions fetched each cycle (Total)
system.cpu0.fetch.rateDist::8                    5223      0.00%    100.00% # Number of instructions fetched each cycle (Total)
system.cpu0.fetch.rateDist::overflows               0      0.00%    100.00% # Number of instructions fetched each cycle (Total)
system.cpu0.fetch.rateDist::min_value               0                       # Number of instructions fetched each cycle (Total)
system.cpu0.fetch.rateDist::max_value               8                       # Number of instructions fetched each cycle (Total)
system.cpu0.fetch.rateDist::total          4102389607                       # Number of instructions fetched each cycle (Total)
system.cpu0.fp_regfile_reads                       44                       # number of floating regfile reads
system.cpu0.fp_regfile_writes                      22                       # number of floating regfile writes
system.cpu0.idleCycles                      284659548                       # Total number of cycles that the CPU has spent unscheduled due to idling
system.cpu0.iew.branchMispredicts            13942841                       # Number of branch mispredicts detected at execute
system.cpu0.iew.exec_branches               567772736                       # Number of branches executed
system.cpu0.iew.exec_nop                            0                       # number of nop insts executed
system.cpu0.iew.exec_rate                    0.525753                       # Inst execution rate
system.cpu0.iew.exec_refs                  1003648647                       # number of memory reference insts executed
system.cpu0.iew.exec_stores                 276200546                       # Number of stores executed
system.cpu0.iew.exec_swp                            0                       # number of swp insts executed
system.cpu0.iew.iewBlockCycles              583635606                       # Number of cycles IEW is blocking
system.cpu0.iew.iewDispLoadInsts            729517144                       # Number of dispatched load instructions
system.cpu0.iew.iewDispNonSpecInsts           3810905                       # Number of dispatched non-speculative instructions
system.cpu0.iew.iewDispSquashedInsts          6790634                       # Number of squashed instructions skipped by dispatch
system.cpu0.iew.iewDispStoreInsts           278241732                       # Number of dispatched store instructions
system.cpu0.iew.iewDispatchedInsts         2328971285                       # Number of instructions dispatched to IQ
system.cpu0.iew.iewExecLoadInsts            727448101                       # Number of load instructions executed
system.cpu0.iew.iewExecSquashedInsts         10967590                       # Number of squashed instructions skipped in execute
system.cpu0.iew.iewExecutedInsts           2306503290                       # Number of executed instructions
system.cpu0.iew.iewIQFullEvents               3500539                       # Number of times the IQ has become full, causing a stall
system.cpu0.iew.iewIdleCycles                       0                       # Number of cycles IEW is idle
system.cpu0.iew.iewLSQFullEvents             19948387                       # Number of times the LSQ has become full, causing a stall
system.cpu0.iew.iewSquashCycles              13759765                       # Number of cycles IEW is squashing
system.cpu0.iew.iewUnblockCycles             27625363                       # Number of cycles IEW is unblocking
system.cpu0.iew.lsq.thread0.blockedLoads            0                       # Number of blocked loads due to partial load-store forwarding
system.cpu0.iew.lsq.thread0.cacheBlocked       298678                       # Number of times an access to memory failed due to the cache being blocked
system.cpu0.iew.lsq.thread0.forwLoads        35811407                       # Number of loads that had data forwarded from stores
system.cpu0.iew.lsq.thread0.ignoredResponses        61023                       # Number of memory responses ignored because the instruction is squashed
system.cpu0.iew.lsq.thread0.invAddrLoads            0                       # Number of loads ignored due to an invalid address
system.cpu0.iew.lsq.thread0.invAddrSwpfs            0                       # Number of software prefetches ignored due to an invalid address
system.cpu0.iew.lsq.thread0.memOrderViolation        27443                       # Number of memory ordering violations
system.cpu0.iew.lsq.thread0.rescheduledLoads      8900122                       # Number of loads that were rescheduled
system.cpu0.iew.lsq.thread0.squashedLoads     37926273                       # Number of loads squashed
system.cpu0.iew.lsq.thread0.squashedStores      9648249                       # Number of stores squashed
system.cpu0.iew.memOrderViolationEvents         27443                       # Number of memory order violations
system.cpu0.iew.predictedNotTakenIncorrect      2021935                       # Number of branches that were predicted not taken incorrectly
system.cpu0.iew.predictedTakenIncorrect      11920906                       # Number of branches that were predicted taken incorrectly
system.cpu0.iew.wb_consumers                967999116                       # num instructions consuming a value
system.cpu0.iew.wb_count                   2288840110                       # cumulative count of insts written-back
system.cpu0.iew.wb_fanout                    0.885934                       # average fanout of values written-back
system.cpu0.iew.wb_producers                857583795                       # num instructions producing a value
system.cpu0.iew.wb_rate                      0.521727                       # insts written-back per cycle
system.cpu0.iew.wb_sent                    2289045948                       # cumulative count of insts sent to commit
system.cpu0.int_regfile_reads              2819004583                       # number of integer regfile reads
system.cpu0.int_regfile_writes             1461727699                       # number of integer regfile writes
system.cpu0.ipc                              0.507188                       # IPC: Instructions Per Cycle
system.cpu0.ipc_total                        0.507188                       # IPC: Total IPC of All Threads
system.cpu0.iq.FU_type_0::No_OpClass          7611902      0.33%      0.33% # Type of FU issued
system.cpu0.iq.FU_type_0::IntAlu           1278932937     55.19%     55.52% # Type of FU issued
system.cpu0.iq.FU_type_0::IntMult            18335177      0.79%     56.31% # Type of FU issued
system.cpu0.iq.FU_type_0::IntDiv              3802463      0.16%     56.47% # Type of FU issued
system.cpu0.iq.FU_type_0::FloatAdd                  0      0.00%     56.47% # Type of FU issued
system.cpu0.iq.FU_type_0::FloatCmp                  4      0.00%     56.47% # Type of FU issued
system.cpu0.iq.FU_type_0::FloatCvt                 12      0.00%     56.47% # Type of FU issued
system.cpu0.iq.FU_type_0::FloatMult                 0      0.00%     56.47% # Type of FU issued
system.cpu0.iq.FU_type_0::FloatMultAcc              1      0.00%     56.47% # Type of FU issued
system.cpu0.iq.FU_type_0::FloatDiv                  2      0.00%     56.47% # Type of FU issued
system.cpu0.iq.FU_type_0::FloatMisc                 4      0.00%     56.47% # Type of FU issued
system.cpu0.iq.FU_type_0::FloatSqrt                 0      0.00%     56.47% # Type of FU issued
system.cpu0.iq.FU_type_0::SimdAdd                   0      0.00%     56.47% # Type of FU issued
system.cpu0.iq.FU_type_0::SimdAddAcc                0      0.00%     56.47% # Type of FU issued
system.cpu0.iq.FU_type_0::SimdAlu                   0      0.00%     56.47% # Type of FU issued
system.cpu0.iq.FU_type_0::SimdCmp                   0      0.00%     56.47% # Type of FU issued
system.cpu0.iq.FU_type_0::SimdCvt                   0      0.00%     56.47% # Type of FU issued
system.cpu0.iq.FU_type_0::SimdMisc                  0      0.00%     56.47% # Type of FU issued
system.cpu0.iq.FU_type_0::SimdMult                  0      0.00%     56.47% # Type of FU issued
system.cpu0.iq.FU_type_0::SimdMultAcc               0      0.00%     56.47% # Type of FU issued
system.cpu0.iq.FU_type_0::SimdShift                 0      0.00%     56.47% # Type of FU issued
system.cpu0.iq.FU_type_0::SimdShiftAcc              0      0.00%     56.47% # Type of FU issued
system.cpu0.iq.FU_type_0::SimdDiv                   0      0.00%     56.47% # Type of FU issued
system.cpu0.iq.FU_type_0::SimdSqrt                  0      0.00%     56.47% # Type of FU issued
system.cpu0.iq.FU_type_0::SimdFloatAdd              0      0.00%     56.47% # Type of FU issued
system.cpu0.iq.FU_type_0::SimdFloatAlu              0      0.00%     56.47% # Type of FU issued
system.cpu0.iq.FU_type_0::SimdFloatCmp              0      0.00%     56.47% # Type of FU issued
system.cpu0.iq.FU_type_0::SimdFloatCvt              0      0.00%     56.47% # Type of FU issued
system.cpu0.iq.FU_type_0::SimdFloatDiv              0      0.00%     56.47% # Type of FU issued
system.cpu0.iq.FU_type_0::SimdFloatMisc             0      0.00%     56.47% # Type of FU issued
system.cpu0.iq.FU_type_0::SimdFloatMult             0      0.00%     56.47% # Type of FU issued
system.cpu0.iq.FU_type_0::SimdFloatMultAcc            0      0.00%     56.47% # Type of FU issued
system.cpu0.iq.FU_type_0::SimdFloatSqrt             0      0.00%     56.47% # Type of FU issued
system.cpu0.iq.FU_type_0::SimdReduceAdd             0      0.00%     56.47% # Type of FU issued
system.cpu0.iq.FU_type_0::SimdReduceAlu             0      0.00%     56.47% # Type of FU issued
system.cpu0.iq.FU_type_0::SimdReduceCmp             0      0.00%     56.47% # Type of FU issued
system.cpu0.iq.FU_type_0::SimdFloatReduceAdd            0      0.00%     56.47% # Type of FU issued
system.cpu0.iq.FU_type_0::SimdFloatReduceCmp            0      0.00%     56.47% # Type of FU issued
system.cpu0.iq.FU_type_0::SimdAes                   0      0.00%     56.47% # Type of FU issued
system.cpu0.iq.FU_type_0::SimdAesMix                0      0.00%     56.47% # Type of FU issued
system.cpu0.iq.FU_type_0::SimdSha1Hash              0      0.00%     56.47% # Type of FU issued
system.cpu0.iq.FU_type_0::SimdSha1Hash2             0      0.00%     56.47% # Type of FU issued
system.cpu0.iq.FU_type_0::SimdSha256Hash            0      0.00%     56.47% # Type of FU issued
system.cpu0.iq.FU_type_0::SimdSha256Hash2            0      0.00%     56.47% # Type of FU issued
system.cpu0.iq.FU_type_0::SimdShaSigma2             0      0.00%     56.47% # Type of FU issued
system.cpu0.iq.FU_type_0::SimdShaSigma3             0      0.00%     56.47% # Type of FU issued
system.cpu0.iq.FU_type_0::SimdPredAlu               0      0.00%     56.47% # Type of FU issued
system.cpu0.iq.FU_type_0::MemRead           735979240     31.76%     88.23% # Type of FU issued
system.cpu0.iq.FU_type_0::MemWrite          272809111     11.77%    100.00% # Type of FU issued
system.cpu0.iq.FU_type_0::FloatMemRead              8      0.00%    100.00% # Type of FU issued
system.cpu0.iq.FU_type_0::FloatMemWrite            20      0.00%    100.00% # Type of FU issued
system.cpu0.iq.FU_type_0::IprAccess                 0      0.00%    100.00% # Type of FU issued
system.cpu0.iq.FU_type_0::InstPrefetch              0      0.00%    100.00% # Type of FU issued
system.cpu0.iq.FU_type_0::total            2317470881                       # Type of FU issued
system.cpu0.iq.fp_alu_accesses                     53                       # Number of floating point alu accesses
system.cpu0.iq.fp_inst_queue_reads                104                       # Number of floating instruction queue reads
system.cpu0.iq.fp_inst_queue_wakeup_accesses           50                       # Number of floating instruction queue wakeup accesses
system.cpu0.iq.fp_inst_queue_writes                52                       # Number of floating instruction queue writes
system.cpu0.iq.fu_busy_cnt                    5666759                       # FU busy when requested
system.cpu0.iq.fu_busy_rate                  0.002445                       # FU busy rate (busy events/executed inst)
system.cpu0.iq.fu_full::No_OpClass                  0      0.00%      0.00% # attempts to use FU when none available
system.cpu0.iq.fu_full::IntAlu                 958945     16.92%     16.92% # attempts to use FU when none available
system.cpu0.iq.fu_full::IntMult                     0      0.00%     16.92% # attempts to use FU when none available
system.cpu0.iq.fu_full::IntDiv                      0      0.00%     16.92% # attempts to use FU when none available
system.cpu0.iq.fu_full::FloatAdd                    0      0.00%     16.92% # attempts to use FU when none available
system.cpu0.iq.fu_full::FloatCmp                    0      0.00%     16.92% # attempts to use FU when none available
system.cpu0.iq.fu_full::FloatCvt                    0      0.00%     16.92% # attempts to use FU when none available
system.cpu0.iq.fu_full::FloatMult                   0      0.00%     16.92% # attempts to use FU when none available
system.cpu0.iq.fu_full::FloatMultAcc                0      0.00%     16.92% # attempts to use FU when none available
system.cpu0.iq.fu_full::FloatDiv                    0      0.00%     16.92% # attempts to use FU when none available
system.cpu0.iq.fu_full::FloatMisc                   0      0.00%     16.92% # attempts to use FU when none available
system.cpu0.iq.fu_full::FloatSqrt                   0      0.00%     16.92% # attempts to use FU when none available
system.cpu0.iq.fu_full::SimdAdd                     0      0.00%     16.92% # attempts to use FU when none available
system.cpu0.iq.fu_full::SimdAddAcc                  0      0.00%     16.92% # attempts to use FU when none available
system.cpu0.iq.fu_full::SimdAlu                     0      0.00%     16.92% # attempts to use FU when none available
system.cpu0.iq.fu_full::SimdCmp                     0      0.00%     16.92% # attempts to use FU when none available
system.cpu0.iq.fu_full::SimdCvt                     0      0.00%     16.92% # attempts to use FU when none available
system.cpu0.iq.fu_full::SimdMisc                    0      0.00%     16.92% # attempts to use FU when none available
system.cpu0.iq.fu_full::SimdMult                    0      0.00%     16.92% # attempts to use FU when none available
system.cpu0.iq.fu_full::SimdMultAcc                 0      0.00%     16.92% # attempts to use FU when none available
system.cpu0.iq.fu_full::SimdShift                   0      0.00%     16.92% # attempts to use FU when none available
system.cpu0.iq.fu_full::SimdShiftAcc                0      0.00%     16.92% # attempts to use FU when none available
system.cpu0.iq.fu_full::SimdDiv                     0      0.00%     16.92% # attempts to use FU when none available
system.cpu0.iq.fu_full::SimdSqrt                    0      0.00%     16.92% # attempts to use FU when none available
system.cpu0.iq.fu_full::SimdFloatAdd                0      0.00%     16.92% # attempts to use FU when none available
system.cpu0.iq.fu_full::SimdFloatAlu                0      0.00%     16.92% # attempts to use FU when none available
system.cpu0.iq.fu_full::SimdFloatCmp                0      0.00%     16.92% # attempts to use FU when none available
system.cpu0.iq.fu_full::SimdFloatCvt                0      0.00%     16.92% # attempts to use FU when none available
system.cpu0.iq.fu_full::SimdFloatDiv                0      0.00%     16.92% # attempts to use FU when none available
system.cpu0.iq.fu_full::SimdFloatMisc               0      0.00%     16.92% # attempts to use FU when none available
system.cpu0.iq.fu_full::SimdFloatMult               0      0.00%     16.92% # attempts to use FU when none available
system.cpu0.iq.fu_full::SimdFloatMultAcc            0      0.00%     16.92% # attempts to use FU when none available
system.cpu0.iq.fu_full::SimdFloatSqrt               0      0.00%     16.92% # attempts to use FU when none available
system.cpu0.iq.fu_full::SimdReduceAdd               0      0.00%     16.92% # attempts to use FU when none available
system.cpu0.iq.fu_full::SimdReduceAlu               0      0.00%     16.92% # attempts to use FU when none available
system.cpu0.iq.fu_full::SimdReduceCmp               0      0.00%     16.92% # attempts to use FU when none available
system.cpu0.iq.fu_full::SimdFloatReduceAdd            0      0.00%     16.92% # attempts to use FU when none available
system.cpu0.iq.fu_full::SimdFloatReduceCmp            0      0.00%     16.92% # attempts to use FU when none available
system.cpu0.iq.fu_full::SimdAes                     0      0.00%     16.92% # attempts to use FU when none available
system.cpu0.iq.fu_full::SimdAesMix                  0      0.00%     16.92% # attempts to use FU when none available
system.cpu0.iq.fu_full::SimdSha1Hash                0      0.00%     16.92% # attempts to use FU when none available
system.cpu0.iq.fu_full::SimdSha1Hash2               0      0.00%     16.92% # attempts to use FU when none available
system.cpu0.iq.fu_full::SimdSha256Hash              0      0.00%     16.92% # attempts to use FU when none available
system.cpu0.iq.fu_full::SimdSha256Hash2             0      0.00%     16.92% # attempts to use FU when none available
system.cpu0.iq.fu_full::SimdShaSigma2               0      0.00%     16.92% # attempts to use FU when none available
system.cpu0.iq.fu_full::SimdShaSigma3               0      0.00%     16.92% # attempts to use FU when none available
system.cpu0.iq.fu_full::SimdPredAlu                 0      0.00%     16.92% # attempts to use FU when none available
system.cpu0.iq.fu_full::MemRead               4100027     72.35%     89.27% # attempts to use FU when none available
system.cpu0.iq.fu_full::MemWrite               607785     10.73%    100.00% # attempts to use FU when none available
system.cpu0.iq.fu_full::FloatMemRead                0      0.00%    100.00% # attempts to use FU when none available
system.cpu0.iq.fu_full::FloatMemWrite               2      0.00%    100.00% # attempts to use FU when none available
system.cpu0.iq.fu_full::IprAccess                   0      0.00%    100.00% # attempts to use FU when none available
system.cpu0.iq.fu_full::InstPrefetch                0      0.00%    100.00% # attempts to use FU when none available
system.cpu0.iq.int_alu_accesses            2315525685                       # Number of integer alu accesses
system.cpu0.iq.int_inst_queue_reads        8743345090                       # Number of integer instruction queue reads
system.cpu0.iq.int_inst_queue_wakeup_accesses   2288840060                       # Number of integer instruction queue wakeup accesses
system.cpu0.iq.int_inst_queue_writes       2429103923                       # Number of integer instruction queue writes
system.cpu0.iq.iqInstsAdded                2317551069                       # Number of instructions added to the IQ (excludes non-spec)
system.cpu0.iq.iqInstsIssued               2317470881                       # Number of instructions issued
system.cpu0.iq.iqNonSpecInstsAdded           11420216                       # Number of non-speculative instructions added to the IQ
system.cpu0.iq.iqSquashedInstsExamined      100106908                       # Number of squashed instructions iterated over during squash; mainly for profiling
system.cpu0.iq.iqSquashedInstsIssued           347067                       # Number of squashed instructions issued
system.cpu0.iq.iqSquashedNonSpecRemoved           770                       # Number of squashed non-spec instructions that were removed
system.cpu0.iq.iqSquashedOperandsExamined     43761569                       # Number of squashed operands that are examined and possibly removed from graph
system.cpu0.iq.issued_per_cycle::samples   4102389607                       # Number of insts issued each cycle
system.cpu0.iq.issued_per_cycle::mean        0.564908                       # Number of insts issued each cycle
system.cpu0.iq.issued_per_cycle::stdev       0.804251                       # Number of insts issued each cycle
system.cpu0.iq.issued_per_cycle::underflows            0      0.00%      0.00% # Number of insts issued each cycle
system.cpu0.iq.issued_per_cycle::0         2412135963     58.80%     58.80% # Number of insts issued each cycle
system.cpu0.iq.issued_per_cycle::1         1203482813     29.34%     88.13% # Number of insts issued each cycle
system.cpu0.iq.issued_per_cycle::2          382428347      9.32%     97.46% # Number of insts issued each cycle
system.cpu0.iq.issued_per_cycle::3           79835404      1.95%     99.40% # Number of insts issued each cycle
system.cpu0.iq.issued_per_cycle::4           18078121      0.44%     99.84% # Number of insts issued each cycle
system.cpu0.iq.issued_per_cycle::5            2933909      0.07%     99.91% # Number of insts issued each cycle
system.cpu0.iq.issued_per_cycle::6            2214596      0.05%     99.97% # Number of insts issued each cycle
system.cpu0.iq.issued_per_cycle::7             888075      0.02%     99.99% # Number of insts issued each cycle
system.cpu0.iq.issued_per_cycle::8             392379      0.01%    100.00% # Number of insts issued each cycle
system.cpu0.iq.issued_per_cycle::overflows            0      0.00%    100.00% # Number of insts issued each cycle
system.cpu0.iq.issued_per_cycle::min_value            0                       # Number of insts issued each cycle
system.cpu0.iq.issued_per_cycle::max_value            8                       # Number of insts issued each cycle
system.cpu0.iq.issued_per_cycle::total     4102389607                       # Number of insts issued each cycle
system.cpu0.iq.rate                          0.528253                       # Inst issue rate
system.cpu0.iq.vec_alu_accesses                     0                       # Number of vector alu accesses
system.cpu0.iq.vec_inst_queue_reads                 0                       # Number of vector instruction queue reads
system.cpu0.iq.vec_inst_queue_wakeup_accesses            0                       # Number of vector instruction queue wakeup accesses
system.cpu0.iq.vec_inst_queue_writes                0                       # Number of vector instruction queue writes
system.cpu0.itb.accesses                            0                       # DTB accesses
system.cpu0.itb.hits                                0                       # DTB hits
system.cpu0.itb.misses                              0                       # DTB misses
system.cpu0.itb.read_accesses                       0                       # DTB read accesses
system.cpu0.itb.read_hits                           0                       # DTB read hits
system.cpu0.itb.read_misses                         0                       # DTB read misses
system.cpu0.itb.write_accesses                      0                       # DTB write accesses
system.cpu0.itb.write_hits                          0                       # DTB write hits
system.cpu0.itb.write_misses                        0                       # DTB write misses
system.cpu0.memDep0.conflictingLoads         42171648                       # Number of conflicting loads.
system.cpu0.memDep0.conflictingStores         6070182                       # Number of conflicting stores.
system.cpu0.memDep0.insertedLoads           729517144                       # Number of loads inserted to the mem dependence unit.
system.cpu0.memDep0.insertedStores          278241732                       # Number of stores inserted to the mem dependence unit.
system.cpu0.misc_regfile_reads                   2894                       # number of misc regfile reads
system.cpu0.misc_regfile_writes                    22                       # number of misc regfile writes
system.cpu0.numCycles                      4387049155                       # number of cpu cycles simulated
system.cpu0.numWorkItemsCompleted                   0                       # number of work items this cpu completed
system.cpu0.numWorkItemsStarted                     0                       # number of work items this cpu started
system.cpu0.quiesceCycles                     9094186                       # Total number of cycles that CPU has spent quiesced or waiting for an interrupt
system.cpu0.rename.BlockCycles              640035711                       # Number of cycles rename is blocking
system.cpu0.rename.CommittedMaps           1421498016                       # Number of HB maps that are committed
system.cpu0.rename.IQFullEvents              27092566                       # Number of times rename has blocked due to IQ full
system.cpu0.rename.IdleCycles              1734075843                       # Number of cycles rename is idle
system.cpu0.rename.LQFullEvents              48582626                       # Number of times rename has blocked due to LQ full
system.cpu0.rename.ROBFullEvents                64384                       # Number of times rename has blocked due to ROB full
system.cpu0.rename.RenameLookups           2871713691                       # Number of register rename lookups that rename has made
system.cpu0.rename.RenamedInsts            2348328931                       # Number of instructions processed by rename
system.cpu0.rename.RenamedOperands         1507190172                       # Number of destination operands rename has renamed
system.cpu0.rename.RunCycles               1603516726                       # Number of cycles rename is running
system.cpu0.rename.SQFullEvents              35104856                       # Number of times rename has blocked due to SQ full
system.cpu0.rename.SquashCycles              13759765                       # Number of cycles rename is squashing
system.cpu0.rename.UnblockCycles            110784377                       # Number of cycles rename is unblocking
system.cpu0.rename.UndoneMaps                85692151                       # Number of HB maps that are undone due to squashing
system.cpu0.rename.fp_rename_lookups               47                       # Number of floating rename lookups
system.cpu0.rename.int_rename_lookups      2871713644                       # Number of integer rename lookups
system.cpu0.rename.serializeStallCycles        217185                       # count of cycles rename stalled for serializing inst
system.cpu0.rename.serializingInsts              8864                       # count of serializing insts renamed
system.cpu0.rename.skidInsts                 55165715                       # count of insts added to the skid buffer
system.cpu0.rename.tempSerializingInsts          8818                       # count of temporary serializing insts renamed
system.cpu0.rob.rob_reads                  6351692811                       # The number of ROB reads
system.cpu0.rob.rob_writes                 4678640660                       # The number of ROB writes
system.cpu0.timesIdled                       56426507                       # Number of times that the entire CPU went into an idle state and unscheduled itself
system.cpu0.workload.numSyscalls                 2861                       # Number of system calls
system.cpu1.branchPred.BTBCorrect                   0                       # Number of correct BTB predictions (this stat may not work properly.
system.cpu1.branchPred.BTBHitPct            93.539482                       # BTB Hit Percentage
system.cpu1.branchPred.BTBHits               18134475                       # Number of BTB hits
system.cpu1.branchPred.BTBLookups            19386974                       # Number of BTB lookups
system.cpu1.branchPred.RASInCorrect                 0                       # Number of incorrect RAS predictions.
system.cpu1.branchPred.condIncorrect          1779382                       # Number of conditional branches incorrect
system.cpu1.branchPred.condPredicted         32980339                       # Number of conditional branches predicted
system.cpu1.branchPred.indirectHits            914392                       # Number of indirect target hits.
system.cpu1.branchPred.indirectLookups         929578                       # Number of indirect predictor lookups.
system.cpu1.branchPred.indirectMisses           15186                       # Number of indirect misses.
system.cpu1.branchPred.lookups               36206677                       # Number of BP lookups
system.cpu1.branchPred.usedRAS                      0                       # Number of times the RAS was used to get a target.
system.cpu1.branchPredindirectMispredicted        48310                       # Number of mispredicted indirect branches.
system.cpu1.commit.amos                       3801577                       # Number of atomic instructions committed
system.cpu1.commit.branchMispredicts          1379337                       # The number of times a branch was mispredicted
system.cpu1.commit.branches                  29520207                       # Number of branches committed
system.cpu1.commit.bw_lim_events              3566972                       # number cycles where commit BW limit reached
system.cpu1.commit.commitNonSpecStalls       11405418                       # The number of times commit has been forced to stall to communicate backwards
system.cpu1.commit.commitSquashedInsts       15830987                       # The number of squashed insts skipped by commit
system.cpu1.commit.committedInsts           130082407                       # Number of instructions committed
system.cpu1.commit.committedOps             133884167                       # Number of ops (including micro ops) committed
system.cpu1.commit.committed_per_cycle::samples    703780395                       # Number of insts commited each cycle
system.cpu1.commit.committed_per_cycle::mean     0.190236                       # Number of insts commited each cycle
system.cpu1.commit.committed_per_cycle::stdev     0.871496                       # Number of insts commited each cycle
system.cpu1.commit.committed_per_cycle::underflows            0      0.00%      0.00% # Number of insts commited each cycle
system.cpu1.commit.committed_per_cycle::0    649290427     92.26%     92.26% # Number of insts commited each cycle
system.cpu1.commit.committed_per_cycle::1     26915606      3.82%     96.08% # Number of insts commited each cycle
system.cpu1.commit.committed_per_cycle::2      8812044      1.25%     97.33% # Number of insts commited each cycle
system.cpu1.commit.committed_per_cycle::3      8647992      1.23%     98.56% # Number of insts commited each cycle
system.cpu1.commit.committed_per_cycle::4      2011219      0.29%     98.85% # Number of insts commited each cycle
system.cpu1.commit.committed_per_cycle::5       696546      0.10%     98.95% # Number of insts commited each cycle
system.cpu1.commit.committed_per_cycle::6      3540008      0.50%     99.45% # Number of insts commited each cycle
system.cpu1.commit.committed_per_cycle::7       299581      0.04%     99.49% # Number of insts commited each cycle
system.cpu1.commit.committed_per_cycle::8      3566972      0.51%    100.00% # Number of insts commited each cycle
system.cpu1.commit.committed_per_cycle::overflows            0      0.00%    100.00% # Number of insts commited each cycle
system.cpu1.commit.committed_per_cycle::min_value            0                       # Number of insts commited each cycle
system.cpu1.commit.committed_per_cycle::max_value            8                       # Number of insts commited each cycle
system.cpu1.commit.committed_per_cycle::total    703780395                       # Number of insts commited each cycle
system.cpu1.commit.fp_insts                        12                       # Number of committed floating point instructions.
system.cpu1.commit.function_calls             1457505                       # Number of function calls committed.
system.cpu1.commit.int_insts                125288116                       # Number of committed integer instructions.
system.cpu1.commit.loads                     36892464                       # Number of loads committed
system.cpu1.commit.membars                    7603286                       # Number of memory barriers committed
system.cpu1.commit.op_class_0::No_OpClass      7603286      5.68%      5.68% # Class of committed instruction
system.cpu1.commit.op_class_0::IntAlu        77461947     57.86%     63.54% # Class of committed instruction
system.cpu1.commit.op_class_0::IntMult             44      0.00%     63.54% # Class of committed instruction
system.cpu1.commit.op_class_0::IntDiv              88      0.00%     63.54% # Class of committed instruction
system.cpu1.commit.op_class_0::FloatAdd             0      0.00%     63.54% # Class of committed instruction
system.cpu1.commit.op_class_0::FloatCmp             0      0.00%     63.54% # Class of committed instruction
system.cpu1.commit.op_class_0::FloatCvt             0      0.00%     63.54% # Class of committed instruction
system.cpu1.commit.op_class_0::FloatMult            0      0.00%     63.54% # Class of committed instruction
system.cpu1.commit.op_class_0::FloatMultAcc            0      0.00%     63.54% # Class of committed instruction
system.cpu1.commit.op_class_0::FloatDiv             0      0.00%     63.54% # Class of committed instruction
system.cpu1.commit.op_class_0::FloatMisc            0      0.00%     63.54% # Class of committed instruction
system.cpu1.commit.op_class_0::FloatSqrt            0      0.00%     63.54% # Class of committed instruction
system.cpu1.commit.op_class_0::SimdAdd              0      0.00%     63.54% # Class of committed instruction
system.cpu1.commit.op_class_0::SimdAddAcc            0      0.00%     63.54% # Class of committed instruction
system.cpu1.commit.op_class_0::SimdAlu              0      0.00%     63.54% # Class of committed instruction
system.cpu1.commit.op_class_0::SimdCmp              0      0.00%     63.54% # Class of committed instruction
system.cpu1.commit.op_class_0::SimdCvt              0      0.00%     63.54% # Class of committed instruction
system.cpu1.commit.op_class_0::SimdMisc             0      0.00%     63.54% # Class of committed instruction
system.cpu1.commit.op_class_0::SimdMult             0      0.00%     63.54% # Class of committed instruction
system.cpu1.commit.op_class_0::SimdMultAcc            0      0.00%     63.54% # Class of committed instruction
system.cpu1.commit.op_class_0::SimdShift            0      0.00%     63.54% # Class of committed instruction
system.cpu1.commit.op_class_0::SimdShiftAcc            0      0.00%     63.54% # Class of committed instruction
system.cpu1.commit.op_class_0::SimdDiv              0      0.00%     63.54% # Class of committed instruction
system.cpu1.commit.op_class_0::SimdSqrt             0      0.00%     63.54% # Class of committed instruction
system.cpu1.commit.op_class_0::SimdFloatAdd            0      0.00%     63.54% # Class of committed instruction
system.cpu1.commit.op_class_0::SimdFloatAlu            0      0.00%     63.54% # Class of committed instruction
system.cpu1.commit.op_class_0::SimdFloatCmp            0      0.00%     63.54% # Class of committed instruction
system.cpu1.commit.op_class_0::SimdFloatCvt            0      0.00%     63.54% # Class of committed instruction
system.cpu1.commit.op_class_0::SimdFloatDiv            0      0.00%     63.54% # Class of committed instruction
system.cpu1.commit.op_class_0::SimdFloatMisc            0      0.00%     63.54% # Class of committed instruction
system.cpu1.commit.op_class_0::SimdFloatMult            0      0.00%     63.54% # Class of committed instruction
system.cpu1.commit.op_class_0::SimdFloatMultAcc            0      0.00%     63.54% # Class of committed instruction
system.cpu1.commit.op_class_0::SimdFloatSqrt            0      0.00%     63.54% # Class of committed instruction
system.cpu1.commit.op_class_0::SimdReduceAdd            0      0.00%     63.54% # Class of committed instruction
system.cpu1.commit.op_class_0::SimdReduceAlu            0      0.00%     63.54% # Class of committed instruction
system.cpu1.commit.op_class_0::SimdReduceCmp            0      0.00%     63.54% # Class of committed instruction
system.cpu1.commit.op_class_0::SimdFloatReduceAdd            0      0.00%     63.54% # Class of committed instruction
system.cpu1.commit.op_class_0::SimdFloatReduceCmp            0      0.00%     63.54% # Class of committed instruction
system.cpu1.commit.op_class_0::SimdAes              0      0.00%     63.54% # Class of committed instruction
system.cpu1.commit.op_class_0::SimdAesMix            0      0.00%     63.54% # Class of committed instruction
system.cpu1.commit.op_class_0::SimdSha1Hash            0      0.00%     63.54% # Class of committed instruction
system.cpu1.commit.op_class_0::SimdSha1Hash2            0      0.00%     63.54% # Class of committed instruction
system.cpu1.commit.op_class_0::SimdSha256Hash            0      0.00%     63.54% # Class of committed instruction
system.cpu1.commit.op_class_0::SimdSha256Hash2            0      0.00%     63.54% # Class of committed instruction
system.cpu1.commit.op_class_0::SimdShaSigma2            0      0.00%     63.54% # Class of committed instruction
system.cpu1.commit.op_class_0::SimdShaSigma3            0      0.00%     63.54% # Class of committed instruction
system.cpu1.commit.op_class_0::SimdPredAlu            0      0.00%     63.54% # Class of committed instruction
system.cpu1.commit.op_class_0::MemRead       40694041     30.39%     93.93% # Class of committed instruction
system.cpu1.commit.op_class_0::MemWrite       8124749      6.07%    100.00% # Class of committed instruction
system.cpu1.commit.op_class_0::FloatMemRead            0      0.00%    100.00% # Class of committed instruction
system.cpu1.commit.op_class_0::FloatMemWrite           12      0.00%    100.00% # Class of committed instruction
system.cpu1.commit.op_class_0::IprAccess            0      0.00%    100.00% # Class of committed instruction
system.cpu1.commit.op_class_0::InstPrefetch            0      0.00%    100.00% # Class of committed instruction
system.cpu1.commit.op_class_0::total        133884167                       # Class of committed instruction
system.cpu1.commit.refs                      48818802                       # Number of memory references committed
system.cpu1.commit.swp_count                        0                       # Number of s/w prefetches committed
system.cpu1.commit.vec_insts                        0                       # Number of committed Vector instructions.
system.cpu1.committedInsts                  130082407                       # Number of Instructions Simulated
system.cpu1.committedOps                    133884167                       # Number of Ops (including micro ops) Simulated
system.cpu1.cpi                              5.441441                       # CPI: Cycles Per Instruction
system.cpu1.cpi_total                        5.441441                       # CPI: Total CPI of All Threads
system.cpu1.decode.BlockedCycles            625859639                       # Number of cycles decode is blocked
system.cpu1.decode.BranchMispred               418178                       # Number of times decode detected a branch misprediction
system.cpu1.decode.BranchResolved            17426946                       # Number of times decode resolved a branch
system.cpu1.decode.DecodedInsts             155781767                       # Number of instructions handled by decode
system.cpu1.decode.IdleCycles                21102101                       # Number of cycles decode is idle
system.cpu1.decode.RunCycles                 49447578                       # Number of cycles decode is running
system.cpu1.decode.SquashCycles               1381133                       # Number of cycles decode is squashing
system.cpu1.decode.SquashedInsts              1125235                       # Number of squashed instructions handled by decode
system.cpu1.decode.UnblockCycles              8916193                       # Number of cycles decode is unblocking
system.cpu1.dtb.accesses                            0                       # DTB accesses
system.cpu1.dtb.hits                                0                       # DTB hits
system.cpu1.dtb.misses                              0                       # DTB misses
system.cpu1.dtb.read_accesses                       0                       # DTB read accesses
system.cpu1.dtb.read_hits                           0                       # DTB read hits
system.cpu1.dtb.read_misses                         0                       # DTB read misses
system.cpu1.dtb.write_accesses                      0                       # DTB write accesses
system.cpu1.dtb.write_hits                          0                       # DTB write hits
system.cpu1.dtb.write_misses                        0                       # DTB write misses
system.cpu1.fetch.Branches                   36206677                       # Number of branches that fetch encountered
system.cpu1.fetch.CacheLines                 21129685                       # Number of cache lines fetched
system.cpu1.fetch.Cycles                    682463918                       # Number of cycles fetch has run and was not squashing or blocked
system.cpu1.fetch.IcacheSquashes               146847                       # Number of outstanding Icache misses that were squashed
system.cpu1.fetch.Insts                     157098284                       # Number of instructions fetch has processed
system.cpu1.fetch.MiscStallCycles                   1                       # Number of cycles fetch has spent waiting on interrupts, or bad addresses, or out of MSHRs
system.cpu1.fetch.SquashCycles                3562356                       # Number of cycles fetch has spent squashing
system.cpu1.fetch.branchRate                 0.051151                       # Number of branch fetches per cycle
system.cpu1.fetch.icacheStallCycles          22461547                       # Number of cycles fetch is stalled on an Icache miss
system.cpu1.fetch.predictedBranches          19048867                       # Number of branches that fetch has predicted taken
system.cpu1.fetch.rate                       0.221942                       # Number of inst fetches per cycle
system.cpu1.fetch.rateDist::samples         706706644                       # Number of instructions fetched each cycle (Total)
system.cpu1.fetch.rateDist::mean             0.227676                       # Number of instructions fetched each cycle (Total)
system.cpu1.fetch.rateDist::stdev            0.673759                       # Number of instructions fetched each cycle (Total)
system.cpu1.fetch.rateDist::underflows              0      0.00%      0.00% # Number of instructions fetched each cycle (Total)
system.cpu1.fetch.rateDist::0               610880033     86.44%     86.44% # Number of instructions fetched each cycle (Total)
system.cpu1.fetch.rateDist::1                54428154      7.70%     94.14% # Number of instructions fetched each cycle (Total)
system.cpu1.fetch.rateDist::2                25163862      3.56%     97.70% # Number of instructions fetched each cycle (Total)
system.cpu1.fetch.rateDist::3                10803075      1.53%     99.23% # Number of instructions fetched each cycle (Total)
system.cpu1.fetch.rateDist::4                 3491777      0.49%     99.73% # Number of instructions fetched each cycle (Total)
system.cpu1.fetch.rateDist::5                 1872563      0.26%     99.99% # Number of instructions fetched each cycle (Total)
system.cpu1.fetch.rateDist::6                   65669      0.01%    100.00% # Number of instructions fetched each cycle (Total)
system.cpu1.fetch.rateDist::7                     724      0.00%    100.00% # Number of instructions fetched each cycle (Total)
system.cpu1.fetch.rateDist::8                     787      0.00%    100.00% # Number of instructions fetched each cycle (Total)
system.cpu1.fetch.rateDist::overflows               0      0.00%    100.00% # Number of instructions fetched each cycle (Total)
system.cpu1.fetch.rateDist::min_value               0                       # Number of instructions fetched each cycle (Total)
system.cpu1.fetch.rateDist::max_value               8                       # Number of instructions fetched each cycle (Total)
system.cpu1.fetch.rateDist::total           706706644                       # Number of instructions fetched each cycle (Total)
system.cpu1.fp_regfile_reads                       12                       # number of floating regfile reads
system.cpu1.idleCycles                        1129107                       # Total number of cycles that the CPU has spent unscheduled due to idling
system.cpu1.iew.branchMispredicts             1517469                       # Number of branch mispredicts detected at execute
system.cpu1.iew.exec_branches                31716763                       # Number of branches executed
system.cpu1.iew.exec_nop                            0                       # number of nop insts executed
system.cpu1.iew.exec_rate                    0.204884                       # Inst execution rate
system.cpu1.iew.exec_refs                    52316916                       # number of memory reference insts executed
system.cpu1.iew.exec_stores                  12325567                       # Number of stores executed
system.cpu1.iew.exec_swp                            0                       # number of swp insts executed
system.cpu1.iew.iewBlockCycles              526968114                       # Number of cycles IEW is blocking
system.cpu1.iew.iewDispLoadInsts             40358014                       # Number of dispatched load instructions
system.cpu1.iew.iewDispNonSpecInsts           3802237                       # Number of dispatched non-speculative instructions
system.cpu1.iew.iewDispSquashedInsts          1099711                       # Number of squashed instructions skipped by dispatch
system.cpu1.iew.iewDispStoreInsts            12635679                       # Number of dispatched store instructions
system.cpu1.iew.iewDispatchedInsts          149700673                       # Number of instructions dispatched to IQ
system.cpu1.iew.iewExecLoadInsts             39991349                       # Number of load instructions executed
system.cpu1.iew.iewExecSquashedInsts          1442849                       # Number of squashed instructions skipped in execute
system.cpu1.iew.iewExecutedInsts            145023959                       # Number of executed instructions
system.cpu1.iew.iewIQFullEvents               3355393                       # Number of times the IQ has become full, causing a stall
system.cpu1.iew.iewIdleCycles                       0                       # Number of cycles IEW is idle
system.cpu1.iew.iewLSQFullEvents             12138905                       # Number of times the LSQ has become full, causing a stall
system.cpu1.iew.iewSquashCycles               1381133                       # Number of cycles IEW is squashing
system.cpu1.iew.iewUnblockCycles             19792655                       # Number of cycles IEW is unblocking
system.cpu1.iew.lsq.thread0.blockedLoads            0                       # Number of blocked loads due to partial load-store forwarding
system.cpu1.iew.lsq.thread0.cacheBlocked       104168                       # Number of times an access to memory failed due to the cache being blocked
system.cpu1.iew.lsq.thread0.forwLoads         1127073                       # Number of loads that had data forwarded from stores
system.cpu1.iew.lsq.thread0.ignoredResponses        31462                       # Number of memory responses ignored because the instruction is squashed
system.cpu1.iew.lsq.thread0.invAddrLoads            0                       # Number of loads ignored due to an invalid address
system.cpu1.iew.lsq.thread0.invAddrSwpfs            0                       # Number of software prefetches ignored due to an invalid address
system.cpu1.iew.lsq.thread0.memOrderViolation         2161                       # Number of memory ordering violations
system.cpu1.iew.lsq.thread0.rescheduledLoads         5195                       # Number of loads that were rescheduled
system.cpu1.iew.lsq.thread0.squashedLoads      3465550                       # Number of loads squashed
system.cpu1.iew.lsq.thread0.squashedStores       709341                       # Number of stores squashed
system.cpu1.iew.memOrderViolationEvents          2161                       # Number of memory order violations
system.cpu1.iew.predictedNotTakenIncorrect       528958                       # Number of branches that were predicted not taken incorrectly
system.cpu1.iew.predictedTakenIncorrect        988511                       # Number of branches that were predicted taken incorrectly
system.cpu1.iew.wb_consumers                 84164532                       # num instructions consuming a value
system.cpu1.iew.wb_count                    143735538                       # cumulative count of insts written-back
system.cpu1.iew.wb_fanout                    0.843804                       # average fanout of values written-back
system.cpu1.iew.wb_producers                 71018355                       # num instructions producing a value
system.cpu1.iew.wb_rate                      0.203063                       # insts written-back per cycle
system.cpu1.iew.wb_sent                     143780269                       # cumulative count of insts sent to commit
system.cpu1.int_regfile_reads               180230934                       # number of integer regfile reads
system.cpu1.int_regfile_writes               96711249                       # number of integer regfile writes
system.cpu1.ipc                              0.183775                       # IPC: Instructions Per Cycle
system.cpu1.ipc_total                        0.183775                       # IPC: Total IPC of All Threads
system.cpu1.iq.FU_type_0::No_OpClass          7603387      5.19%      5.19% # Type of FU issued
system.cpu1.iq.FU_type_0::IntAlu             86100286     58.78%     63.98% # Type of FU issued
system.cpu1.iq.FU_type_0::IntMult                  46      0.00%     63.98% # Type of FU issued
system.cpu1.iq.FU_type_0::IntDiv                   88      0.00%     63.98% # Type of FU issued
system.cpu1.iq.FU_type_0::FloatAdd                  0      0.00%     63.98% # Type of FU issued
system.cpu1.iq.FU_type_0::FloatCmp                  0      0.00%     63.98% # Type of FU issued
system.cpu1.iq.FU_type_0::FloatCvt                  0      0.00%     63.98% # Type of FU issued
system.cpu1.iq.FU_type_0::FloatMult                 0      0.00%     63.98% # Type of FU issued
system.cpu1.iq.FU_type_0::FloatMultAcc              0      0.00%     63.98% # Type of FU issued
system.cpu1.iq.FU_type_0::FloatDiv                  0      0.00%     63.98% # Type of FU issued
system.cpu1.iq.FU_type_0::FloatMisc                 0      0.00%     63.98% # Type of FU issued
system.cpu1.iq.FU_type_0::FloatSqrt                 0      0.00%     63.98% # Type of FU issued
system.cpu1.iq.FU_type_0::SimdAdd                   0      0.00%     63.98% # Type of FU issued
system.cpu1.iq.FU_type_0::SimdAddAcc                0      0.00%     63.98% # Type of FU issued
system.cpu1.iq.FU_type_0::SimdAlu                   0      0.00%     63.98% # Type of FU issued
system.cpu1.iq.FU_type_0::SimdCmp                   0      0.00%     63.98% # Type of FU issued
system.cpu1.iq.FU_type_0::SimdCvt                   0      0.00%     63.98% # Type of FU issued
system.cpu1.iq.FU_type_0::SimdMisc                  0      0.00%     63.98% # Type of FU issued
system.cpu1.iq.FU_type_0::SimdMult                  0      0.00%     63.98% # Type of FU issued
system.cpu1.iq.FU_type_0::SimdMultAcc               0      0.00%     63.98% # Type of FU issued
system.cpu1.iq.FU_type_0::SimdShift                 0      0.00%     63.98% # Type of FU issued
system.cpu1.iq.FU_type_0::SimdShiftAcc              0      0.00%     63.98% # Type of FU issued
system.cpu1.iq.FU_type_0::SimdDiv                   0      0.00%     63.98% # Type of FU issued
system.cpu1.iq.FU_type_0::SimdSqrt                  0      0.00%     63.98% # Type of FU issued
system.cpu1.iq.FU_type_0::SimdFloatAdd              0      0.00%     63.98% # Type of FU issued
system.cpu1.iq.FU_type_0::SimdFloatAlu              0      0.00%     63.98% # Type of FU issued
system.cpu1.iq.FU_type_0::SimdFloatCmp              0      0.00%     63.98% # Type of FU issued
system.cpu1.iq.FU_type_0::SimdFloatCvt              0      0.00%     63.98% # Type of FU issued
system.cpu1.iq.FU_type_0::SimdFloatDiv              0      0.00%     63.98% # Type of FU issued
system.cpu1.iq.FU_type_0::SimdFloatMisc             0      0.00%     63.98% # Type of FU issued
system.cpu1.iq.FU_type_0::SimdFloatMult             0      0.00%     63.98% # Type of FU issued
system.cpu1.iq.FU_type_0::SimdFloatMultAcc            0      0.00%     63.98% # Type of FU issued
system.cpu1.iq.FU_type_0::SimdFloatSqrt             0      0.00%     63.98% # Type of FU issued
system.cpu1.iq.FU_type_0::SimdReduceAdd             0      0.00%     63.98% # Type of FU issued
system.cpu1.iq.FU_type_0::SimdReduceAlu             0      0.00%     63.98% # Type of FU issued
system.cpu1.iq.FU_type_0::SimdReduceCmp             0      0.00%     63.98% # Type of FU issued
system.cpu1.iq.FU_type_0::SimdFloatReduceAdd            0      0.00%     63.98% # Type of FU issued
system.cpu1.iq.FU_type_0::SimdFloatReduceCmp            0      0.00%     63.98% # Type of FU issued
system.cpu1.iq.FU_type_0::SimdAes                   0      0.00%     63.98% # Type of FU issued
system.cpu1.iq.FU_type_0::SimdAesMix                0      0.00%     63.98% # Type of FU issued
system.cpu1.iq.FU_type_0::SimdSha1Hash              0      0.00%     63.98% # Type of FU issued
system.cpu1.iq.FU_type_0::SimdSha1Hash2             0      0.00%     63.98% # Type of FU issued
system.cpu1.iq.FU_type_0::SimdSha256Hash            0      0.00%     63.98% # Type of FU issued
system.cpu1.iq.FU_type_0::SimdSha256Hash2            0      0.00%     63.98% # Type of FU issued
system.cpu1.iq.FU_type_0::SimdShaSigma2             0      0.00%     63.98% # Type of FU issued
system.cpu1.iq.FU_type_0::SimdShaSigma3             0      0.00%     63.98% # Type of FU issued
system.cpu1.iq.FU_type_0::SimdPredAlu               0      0.00%     63.98% # Type of FU issued
system.cpu1.iq.FU_type_0::MemRead            44197749     30.18%     94.15% # Type of FU issued
system.cpu1.iq.FU_type_0::MemWrite            8565240      5.85%    100.00% # Type of FU issued
system.cpu1.iq.FU_type_0::FloatMemRead              0      0.00%    100.00% # Type of FU issued
system.cpu1.iq.FU_type_0::FloatMemWrite            12      0.00%    100.00% # Type of FU issued
system.cpu1.iq.FU_type_0::IprAccess                 0      0.00%    100.00% # Type of FU issued
system.cpu1.iq.FU_type_0::InstPrefetch              0      0.00%    100.00% # Type of FU issued
system.cpu1.iq.FU_type_0::total             146466808                       # Type of FU issued
system.cpu1.iq.fp_alu_accesses                     14                       # Number of floating point alu accesses
system.cpu1.iq.fp_inst_queue_reads                 26                       # Number of floating instruction queue reads
system.cpu1.iq.fp_inst_queue_wakeup_accesses           12                       # Number of floating instruction queue wakeup accesses
system.cpu1.iq.fp_inst_queue_writes                12                       # Number of floating instruction queue writes
system.cpu1.iq.fu_busy_cnt                    4426116                       # FU busy when requested
system.cpu1.iq.fu_busy_rate                  0.030219                       # FU busy rate (busy events/executed inst)
system.cpu1.iq.fu_full::No_OpClass                  0      0.00%      0.00% # attempts to use FU when none available
system.cpu1.iq.fu_full::IntAlu                 896385     20.25%     20.25% # attempts to use FU when none available
system.cpu1.iq.fu_full::IntMult                     0      0.00%     20.25% # attempts to use FU when none available
system.cpu1.iq.fu_full::IntDiv                      0      0.00%     20.25% # attempts to use FU when none available
system.cpu1.iq.fu_full::FloatAdd                    0      0.00%     20.25% # attempts to use FU when none available
system.cpu1.iq.fu_full::FloatCmp                    0      0.00%     20.25% # attempts to use FU when none available
system.cpu1.iq.fu_full::FloatCvt                    0      0.00%     20.25% # attempts to use FU when none available
system.cpu1.iq.fu_full::FloatMult                   0      0.00%     20.25% # attempts to use FU when none available
system.cpu1.iq.fu_full::FloatMultAcc                0      0.00%     20.25% # attempts to use FU when none available
system.cpu1.iq.fu_full::FloatDiv                    0      0.00%     20.25% # attempts to use FU when none available
system.cpu1.iq.fu_full::FloatMisc                   0      0.00%     20.25% # attempts to use FU when none available
system.cpu1.iq.fu_full::FloatSqrt                   0      0.00%     20.25% # attempts to use FU when none available
system.cpu1.iq.fu_full::SimdAdd                     0      0.00%     20.25% # attempts to use FU when none available
system.cpu1.iq.fu_full::SimdAddAcc                  0      0.00%     20.25% # attempts to use FU when none available
system.cpu1.iq.fu_full::SimdAlu                     0      0.00%     20.25% # attempts to use FU when none available
system.cpu1.iq.fu_full::SimdCmp                     0      0.00%     20.25% # attempts to use FU when none available
system.cpu1.iq.fu_full::SimdCvt                     0      0.00%     20.25% # attempts to use FU when none available
system.cpu1.iq.fu_full::SimdMisc                    0      0.00%     20.25% # attempts to use FU when none available
system.cpu1.iq.fu_full::SimdMult                    0      0.00%     20.25% # attempts to use FU when none available
system.cpu1.iq.fu_full::SimdMultAcc                 0      0.00%     20.25% # attempts to use FU when none available
system.cpu1.iq.fu_full::SimdShift                   0      0.00%     20.25% # attempts to use FU when none available
system.cpu1.iq.fu_full::SimdShiftAcc                0      0.00%     20.25% # attempts to use FU when none available
system.cpu1.iq.fu_full::SimdDiv                     0      0.00%     20.25% # attempts to use FU when none available
system.cpu1.iq.fu_full::SimdSqrt                    0      0.00%     20.25% # attempts to use FU when none available
system.cpu1.iq.fu_full::SimdFloatAdd                0      0.00%     20.25% # attempts to use FU when none available
system.cpu1.iq.fu_full::SimdFloatAlu                0      0.00%     20.25% # attempts to use FU when none available
system.cpu1.iq.fu_full::SimdFloatCmp                0      0.00%     20.25% # attempts to use FU when none available
system.cpu1.iq.fu_full::SimdFloatCvt                0      0.00%     20.25% # attempts to use FU when none available
system.cpu1.iq.fu_full::SimdFloatDiv                0      0.00%     20.25% # attempts to use FU when none available
system.cpu1.iq.fu_full::SimdFloatMisc               0      0.00%     20.25% # attempts to use FU when none available
system.cpu1.iq.fu_full::SimdFloatMult               0      0.00%     20.25% # attempts to use FU when none available
system.cpu1.iq.fu_full::SimdFloatMultAcc            0      0.00%     20.25% # attempts to use FU when none available
system.cpu1.iq.fu_full::SimdFloatSqrt               0      0.00%     20.25% # attempts to use FU when none available
system.cpu1.iq.fu_full::SimdReduceAdd               0      0.00%     20.25% # attempts to use FU when none available
system.cpu1.iq.fu_full::SimdReduceAlu               0      0.00%     20.25% # attempts to use FU when none available
system.cpu1.iq.fu_full::SimdReduceCmp               0      0.00%     20.25% # attempts to use FU when none available
system.cpu1.iq.fu_full::SimdFloatReduceAdd            0      0.00%     20.25% # attempts to use FU when none available
system.cpu1.iq.fu_full::SimdFloatReduceCmp            0      0.00%     20.25% # attempts to use FU when none available
system.cpu1.iq.fu_full::SimdAes                     0      0.00%     20.25% # attempts to use FU when none available
system.cpu1.iq.fu_full::SimdAesMix                  0      0.00%     20.25% # attempts to use FU when none available
system.cpu1.iq.fu_full::SimdSha1Hash                0      0.00%     20.25% # attempts to use FU when none available
system.cpu1.iq.fu_full::SimdSha1Hash2               0      0.00%     20.25% # attempts to use FU when none available
system.cpu1.iq.fu_full::SimdSha256Hash              0      0.00%     20.25% # attempts to use FU when none available
system.cpu1.iq.fu_full::SimdSha256Hash2             0      0.00%     20.25% # attempts to use FU when none available
system.cpu1.iq.fu_full::SimdShaSigma2               0      0.00%     20.25% # attempts to use FU when none available
system.cpu1.iq.fu_full::SimdShaSigma3               0      0.00%     20.25% # attempts to use FU when none available
system.cpu1.iq.fu_full::SimdPredAlu                 0      0.00%     20.25% # attempts to use FU when none available
system.cpu1.iq.fu_full::MemRead               3108357     70.23%     90.48% # attempts to use FU when none available
system.cpu1.iq.fu_full::MemWrite               421372      9.52%    100.00% # attempts to use FU when none available
[...]
system.cpu1.dcache.ReadReq_accesses::total     45782161                       # number of ReadReq accesses(hits+misses)
system.cpu1.dcache.ReadReq_miss_rate::.cpu1.data     0.196611                       # miss rate for ReadReq accesses
system.cpu1.dcache.ReadReq_miss_rate::total     0.196611                       # miss rate for ReadReq accesses
system.cpu1.dcache.ReadReq_avg_miss_latency::.cpu1.data 65571.086652                       # average ReadReq miss latency
system.cpu1.dcache.ReadReq_avg_miss_latency::total 65571.086652                       # average ReadReq miss latency
system.cpu1.dcache.ReadReq_mshr_hits::.cpu1.data      6028308                       # number of ReadReq MSHR hits
system.cpu1.dcache.ReadReq_mshr_hits::total      6028308                       # number of ReadReq MSHR hits
system.cpu1.dcache.ReadReq_mshr_misses::.cpu1.data      2972988                       # number of ReadReq MSHR misses
system.cpu1.dcache.ReadReq_mshr_misses::total      2972988                       # number of ReadReq MSHR misses
system.cpu1.dcache.ReadReq_mshr_miss_latency::.cpu1.data 261009406500                       # number of ReadReq MSHR miss cycles
system.cpu1.dcache.ReadReq_mshr_miss_latency::total 261009406500                       # number of ReadReq MSHR miss cycles
system.cpu1.dcache.ReadReq_mshr_miss_rate::.cpu1.data     0.064938                       # mshr miss rate for ReadReq accesses
system.cpu1.dcache.ReadReq_mshr_miss_rate::total     0.064938                       # mshr miss rate for ReadReq accesses
system.cpu1.dcache.ReadReq_avg_mshr_miss_latency::.cpu1.data 87793.629339                       # average ReadReq mshr miss latency
system.cpu1.dcache.ReadReq_avg_mshr_miss_latency::total 87793.629339                       # average ReadReq mshr miss latency
system.cpu1.dcache.WriteReq_hits::.cpu1.data       839105                       # number of WriteReq hits
system.cpu1.dcache.WriteReq_hits::total        839105                       # number of WriteReq hits
system.cpu1.dcache.WriteReq_misses::.cpu1.data      1491214                       # number of WriteReq misses
system.cpu1.dcache.WriteReq_misses::total      1491214                       # number of WriteReq misses
system.cpu1.dcache.WriteReq_miss_latency::.cpu1.data 122855421498                       # number of WriteReq miss cycles
system.cpu1.dcache.WriteReq_miss_latency::total 122855421498                       # number of WriteReq miss cycles
system.cpu1.dcache.WriteReq_accesses::.cpu1.data      2330319                       # number of WriteReq accesses(hits+misses)
system.cpu1.dcache.WriteReq_accesses::total      2330319                       # number of WriteReq accesses(hits+misses)
system.cpu1.dcache.WriteReq_miss_rate::.cpu1.data     0.639918                       # miss rate for WriteReq accesses
system.cpu1.dcache.WriteReq_miss_rate::total     0.639918                       # miss rate for WriteReq accesses
system.cpu1.dcache.WriteReq_avg_miss_latency::.cpu1.data 82386.177636                       # average WriteReq miss latency
system.cpu1.dcache.WriteReq_avg_miss_latency::total 82386.177636                       # average WriteReq miss latency
system.cpu1.dcache.WriteReq_mshr_hits::.cpu1.data      1391239                       # number of WriteReq MSHR hits
system.cpu1.dcache.WriteReq_mshr_hits::total      1391239                       # number of WriteReq MSHR hits
system.cpu1.dcache.WriteReq_mshr_misses::.cpu1.data        99975                       # number of WriteReq MSHR misses
system.cpu1.dcache.WriteReq_mshr_misses::total        99975                       # number of WriteReq MSHR misses
system.cpu1.dcache.WriteReq_mshr_miss_latency::.cpu1.data  10672228000                       # number of WriteReq MSHR miss cycles
system.cpu1.dcache.WriteReq_mshr_miss_latency::total  10672228000                       # number of WriteReq MSHR miss cycles
system.cpu1.dcache.WriteReq_mshr_miss_rate::.cpu1.data     0.042902                       # mshr miss rate for WriteReq accesses
system.cpu1.dcache.WriteReq_mshr_miss_rate::total     0.042902                       # mshr miss rate for WriteReq accesses
system.cpu1.dcache.WriteReq_avg_mshr_miss_latency::.cpu1.data 106748.967242                       # average WriteReq mshr miss latency
system.cpu1.dcache.WriteReq_avg_mshr_miss_latency::total 106748.967242                       # average WriteReq mshr miss latency
system.cpu1.dcache.LoadLockedReq_hits::.cpu1.data      1550547                       # number of LoadLockedReq hits
system.cpu1.dcache.LoadLockedReq_hits::total      1550547                       # number of LoadLockedReq hits
system.cpu1.dcache.LoadLockedReq_misses::.cpu1.data        23452                       # number of LoadLockedReq misses
system.cpu1.dcache.LoadLockedReq_misses::total        23452                       # number of LoadLockedReq misses
system.cpu1.dcache.LoadLockedReq_miss_latency::.cpu1.data    572792500                       # number of LoadLockedReq miss cycles
system.cpu1.dcache.LoadLockedReq_miss_latency::total    572792500                       # number of LoadLockedReq miss cycles
system.cpu1.dcache.LoadLockedReq_accesses::.cpu1.data      1573999                       # number of LoadLockedReq accesses(hits+misses)
system.cpu1.dcache.LoadLockedReq_accesses::total      1573999                       # number of LoadLockedReq accesses(hits+misses)
system.cpu1.dcache.LoadLockedReq_miss_rate::.cpu1.data     0.014900                       # miss rate for LoadLockedReq accesses
system.cpu1.dcache.LoadLockedReq_miss_rate::total     0.014900                       # miss rate for LoadLockedReq accesses
system.cpu1.dcache.LoadLockedReq_avg_miss_latency::.cpu1.data 24424.036330                       # average LoadLockedReq miss latency
system.cpu1.dcache.LoadLockedReq_avg_miss_latency::total 24424.036330                       # average LoadLockedReq miss latency
system.cpu1.dcache.LoadLockedReq_mshr_hits::.cpu1.data          132                       # number of LoadLockedReq MSHR hits
system.cpu1.dcache.LoadLockedReq_mshr_hits::total          132                       # number of LoadLockedReq MSHR hits
system.cpu1.dcache.LoadLockedReq_mshr_misses::.cpu1.data        23320                       # number of LoadLockedReq MSHR misses
system.cpu1.dcache.LoadLockedReq_mshr_misses::total        23320                       # number of LoadLockedReq MSHR misses
system.cpu1.dcache.LoadLockedReq_mshr_miss_latency::.cpu1.data    541689000                       # number of LoadLockedReq MSHR miss cycles
system.cpu1.dcache.LoadLockedReq_mshr_miss_latency::total    541689000                       # number of LoadLockedReq MSHR miss cycles
system.cpu1.dcache.LoadLockedReq_mshr_miss_rate::.cpu1.data     0.014816                       # mshr miss rate for LoadLockedReq accesses
system.cpu1.dcache.LoadLockedReq_mshr_miss_rate::total     0.014816                       # mshr miss rate for LoadLockedReq accesses
system.cpu1.dcache.LoadLockedReq_avg_mshr_miss_latency::.cpu1.data 23228.516295                       # average LoadLockedReq mshr miss latency
system.cpu1.dcache.LoadLockedReq_avg_mshr_miss_latency::total 23228.516295                       # average LoadLockedReq mshr miss latency
system.cpu1.dcache.StoreCondReq_hits::.cpu1.data      1573498                       # number of StoreCondReq hits
system.cpu1.dcache.StoreCondReq_hits::total      1573498                       # number of StoreCondReq hits
system.cpu1.dcache.StoreCondReq_misses::.cpu1.data          360                       # number of StoreCondReq misses
system.cpu1.dcache.StoreCondReq_misses::total          360                       # number of StoreCondReq misses
system.cpu1.dcache.StoreCondReq_miss_latency::.cpu1.data      2605500                       # number of StoreCondReq miss cycles
system.cpu1.dcache.StoreCondReq_miss_latency::total      2605500                       # number of StoreCondReq miss cycles
system.cpu1.dcache.StoreCondReq_accesses::.cpu1.data      1573858                       # number of StoreCondReq accesses(hits+misses)
system.cpu1.dcache.StoreCondReq_accesses::total      1573858                       # number of StoreCondReq accesses(hits+misses)
system.cpu1.dcache.StoreCondReq_miss_rate::.cpu1.data     0.000229                       # miss rate for StoreCondReq accesses
system.cpu1.dcache.StoreCondReq_miss_rate::total     0.000229                       # miss rate for StoreCondReq accesses
system.cpu1.dcache.StoreCondReq_avg_miss_latency::.cpu1.data  7237.500000                       # average StoreCondReq miss latency
system.cpu1.dcache.StoreCondReq_avg_miss_latency::total  7237.500000                       # average StoreCondReq miss latency
system.cpu1.dcache.StoreCondReq_mshr_misses::.cpu1.data          360                       # number of StoreCondReq MSHR misses
system.cpu1.dcache.StoreCondReq_mshr_misses::total          360                       # number of StoreCondReq MSHR misses
system.cpu1.dcache.StoreCondReq_mshr_miss_latency::.cpu1.data      2245500                       # number of StoreCondReq MSHR miss cycles
system.cpu1.dcache.StoreCondReq_mshr_miss_latency::total      2245500                       # number of StoreCondReq MSHR miss cycles
system.cpu1.dcache.StoreCondReq_mshr_miss_rate::.cpu1.data     0.000229                       # mshr miss rate for StoreCondReq accesses
system.cpu1.dcache.StoreCondReq_mshr_miss_rate::total     0.000229                       # mshr miss rate for StoreCondReq accesses
system.cpu1.dcache.StoreCondReq_avg_mshr_miss_latency::.cpu1.data  6237.500000                       # average StoreCondReq mshr miss latency
system.cpu1.dcache.StoreCondReq_avg_mshr_miss_latency::total  6237.500000                       # average StoreCondReq mshr miss latency
system.cpu1.dcache.SwapReq_hits::.cpu1.data          516                       # number of SwapReq hits
system.cpu1.dcache.SwapReq_hits::total            516                       # number of SwapReq hits
system.cpu1.dcache.SwapReq_misses::.cpu1.data         1010                       # number of SwapReq misses
system.cpu1.dcache.SwapReq_misses::total         1010                       # number of SwapReq misses
system.cpu1.dcache.SwapReq_miss_latency::.cpu1.data     14111000                       # number of SwapReq miss cycles
system.cpu1.dcache.SwapReq_miss_latency::total     14111000                       # number of SwapReq miss cycles
system.cpu1.dcache.SwapReq_accesses::.cpu1.data         1526                       # number of SwapReq accesses(hits+misses)
system.cpu1.dcache.SwapReq_accesses::total         1526                       # number of SwapReq accesses(hits+misses)
system.cpu1.dcache.SwapReq_miss_rate::.cpu1.data     0.661861                       # miss rate for SwapReq accesses
system.cpu1.dcache.SwapReq_miss_rate::total     0.661861                       # miss rate for SwapReq accesses
system.cpu1.dcache.SwapReq_avg_miss_latency::.cpu1.data 13971.287129                       # average SwapReq miss latency
system.cpu1.dcache.SwapReq_avg_miss_latency::total 13971.287129                       # average SwapReq miss latency
system.cpu1.dcache.SwapReq_mshr_misses::.cpu1.data         1010                       # number of SwapReq MSHR misses
system.cpu1.dcache.SwapReq_mshr_misses::total         1010                       # number of SwapReq MSHR misses
system.cpu1.dcache.SwapReq_mshr_miss_latency::.cpu1.data     13101000                       # number of SwapReq MSHR miss cycles
system.cpu1.dcache.SwapReq_mshr_miss_latency::total     13101000                       # number of SwapReq MSHR miss cycles
system.cpu1.dcache.SwapReq_mshr_miss_rate::.cpu1.data     0.661861                       # mshr miss rate for SwapReq accesses
system.cpu1.dcache.SwapReq_mshr_miss_rate::total     0.661861                       # mshr miss rate for SwapReq accesses
system.cpu1.dcache.SwapReq_avg_mshr_miss_latency::.cpu1.data 12971.287129                       # average SwapReq mshr miss latency
system.cpu1.dcache.SwapReq_avg_mshr_miss_latency::total 12971.287129                       # average SwapReq mshr miss latency
system.cpu1.dcache.tags.pwrStateResidencyTicks::UNDEFINED 251753023500                       # Cumulative time (in ticks) in various power states
system.cpu1.dcache.tags.tagsinuse           31.934209                       # Cycle average of tags in use
system.cpu1.dcache.tags.total_refs           43843782                       # Total number of references to valid blocks.
system.cpu1.dcache.tags.sampled_refs          3096871                       # Sample count of references to valid blocks.
system.cpu1.dcache.tags.avg_refs            14.157445                       # Average number of references to valid blocks.
system.cpu1.dcache.tags.warmup_cycle                0                       # Cycle when the warmup percentage was hit.
system.cpu1.dcache.tags.occ_blocks::.cpu1.data    31.934209                       # Average occupied blocks per requestor
system.cpu1.dcache.tags.occ_percent::.cpu1.data     0.997944                       # Average percentage of cache occupancy
system.cpu1.dcache.tags.occ_percent::total     0.997944                       # Average percentage of cache occupancy
system.cpu1.dcache.tags.occ_task_id_blocks::1024           28                       # Occupied blocks per task id
system.cpu1.dcache.tags.age_task_id_blocks_1024::1           28                       # Occupied blocks per task id
system.cpu1.dcache.tags.occ_task_id_percent::1024     0.875000                       # Percentage of cache occupancy per task id
system.cpu1.dcache.tags.tag_accesses        105620570                       # Number of tag accesses
system.cpu1.dcache.tags.data_accesses       105620570                       # Number of data accesses
system.cpu_clk_domain.clock                       500                       # Clock period in ticks
system.tol2bus.pwrStateResidencyTicks::UNDEFINED 251753023500                       # Cumulative time (in ticks) in various power states
system.tol2bus.trans_dist::ReadResp           7111613                       # Transaction distribution
system.tol2bus.trans_dist::WritebackDirty      1064382                       # Transaction distribution
system.tol2bus.trans_dist::WritebackClean      6755413                       # Transaction distribution
system.tol2bus.trans_dist::CleanEvict        15053843                       # Transaction distribution
system.tol2bus.trans_dist::HardPFReq          6567893                       # Transaction distribution
system.tol2bus.trans_dist::UpgradeReq            1031                       # Transaction distribution
system.tol2bus.trans_dist::SCUpgradeReq           795                       # Transaction distribution
system.tol2bus.trans_dist::UpgradeResp           1826                       # Transaction distribution
system.tol2bus.trans_dist::ReadExReq           207322                       # Transaction distribution
system.tol2bus.trans_dist::ReadExResp          207322                       # Transaction distribution
system.tol2bus.trans_dist::ReadCleanReq        112455                       # Transaction distribution
system.tol2bus.trans_dist::ReadSharedReq      6999158                       # Transaction distribution
system.tol2bus.pkt_count_system.cpu0.icache.mem_side::system.l2.cpu_side       323097                       # Packet count per connected master and slave (bytes)
system.tol2bus.pkt_count_system.cpu0.dcache.mem_side::system.l2.cpu_side     12326918                       # Packet count per connected master and slave (bytes)
system.tol2bus.pkt_count_system.cpu1.icache.mem_side::system.l2.cpu_side        14268                       # Packet count per connected master and slave (bytes)
system.tol2bus.pkt_count_system.cpu1.dcache.mem_side::system.l2.cpu_side      9288230                       # Packet count per connected master and slave (bytes)
system.tol2bus.pkt_count::total              21952513                       # Packet count per connected master and slave (bytes)
system.tol2bus.pkt_size_system.cpu0.icache.mem_side::system.l2.cpu_side     13785472                       # Cumulative packet size per connected master and slave (bytes)
system.tol2bus.pkt_size_system.cpu0.dcache.mem_side::system.l2.cpu_side    525833152                       # Cumulative packet size per connected master and slave (bytes)
system.tol2bus.pkt_size_system.cpu1.icache.mem_side::system.l2.cpu_side       608768                       # Cumulative packet size per connected master and slave (bytes)
system.tol2bus.pkt_size_system.cpu1.dcache.mem_side::system.l2.cpu_side    396187328                       # Cumulative packet size per connected master and slave (bytes)
system.tol2bus.pkt_size::total              936414720                       # Cumulative packet size per connected master and slave (bytes)
system.tol2bus.snoops                        22130540                       # Total snoops (count)
system.tol2bus.snoopTraffic                  32464000                       # Total snoop traffic (bytes)
system.tol2bus.snoop_fanout::samples         29447340                       # Request fanout histogram
system.tol2bus.snoop_fanout::mean            0.215360                       # Request fanout histogram
system.tol2bus.snoop_fanout::stdev           0.418658                       # Request fanout histogram
system.tol2bus.snoop_fanout::underflows             0      0.00%      0.00% # Request fanout histogram
system.tol2bus.snoop_fanout::0               23198242     78.78%     78.78% # Request fanout histogram
system.tol2bus.snoop_fanout::1                6156421     20.91%     99.69% # Request fanout histogram
system.tol2bus.snoop_fanout::2                  92677      0.31%    100.00% # Request fanout histogram
system.tol2bus.snoop_fanout::3                      0      0.00%    100.00% # Request fanout histogram
system.tol2bus.snoop_fanout::4                      0      0.00%    100.00% # Request fanout histogram
system.tol2bus.snoop_fanout::5                      0      0.00%    100.00% # Request fanout histogram
system.tol2bus.snoop_fanout::6                      0      0.00%    100.00% # Request fanout histogram
system.tol2bus.snoop_fanout::7                      0      0.00%    100.00% # Request fanout histogram
system.tol2bus.snoop_fanout::8                      0      0.00%    100.00% # Request fanout histogram
system.tol2bus.snoop_fanout::overflows              0      0.00%    100.00% # Request fanout histogram
system.tol2bus.snoop_fanout::min_value              0                       # Request fanout histogram
system.tol2bus.snoop_fanout::max_value              2                       # Request fanout histogram
system.tol2bus.snoop_fanout::total           29447340                       # Request fanout histogram
system.tol2bus.reqLayer0.occupancy        14635687885                       # Layer occupancy (ticks)
system.tol2bus.reqLayer0.utilization              5.8                       # Layer utilization (%)
system.tol2bus.respLayer1.occupancy        6166744420                       # Layer occupancy (ticks)
system.tol2bus.respLayer1.utilization             2.4                       # Layer utilization (%)
system.tol2bus.respLayer0.occupancy         161566464                       # Layer occupancy (ticks)
system.tol2bus.respLayer0.utilization             0.1                       # Layer utilization (%)
system.tol2bus.respLayer3.occupancy        4647729391                       # Layer occupancy (ticks)
system.tol2bus.respLayer3.utilization             1.8                       # Layer utilization (%)
system.tol2bus.respLayer2.occupancy           7160946                       # Layer occupancy (ticks)
system.tol2bus.respLayer2.utilization             0.0                       # Layer utilization (%)

---------- End Simulation Statistics   ----------
