
---------- Begin Simulation Statistics ----------
final_tick                               869559876000                       # Number of ticks from beginning of simulation (restored from checkpoints and never reset)
host_inst_rate                                  96634                       # Simulator instruction rate (inst/s)
host_mem_usage                                 739508                       # Number of bytes of host memory used
host_op_rate                                    96946                       # Simulator op (including micro ops) rate (op/s)
host_seconds                                 10539.89                       # Real time elapsed on the host
host_tick_rate                               82501789                       # Simulator tick rate (ticks/s)
sim_freq                                 1000000000000                       # Frequency of simulated ticks
sim_insts                                  1018513470                       # Number of instructions simulated
sim_ops                                    1021795070                       # Number of ops (including micro ops) simulated
sim_seconds                                  0.869560                       # Number of seconds simulated
sim_ticks                                869559876000                       # Number of ticks simulated
system.cpu0.branchPred.BTBCorrect                   0                       # Number of correct BTB predictions (this stat may not work properly.
system.cpu0.branchPred.BTBHitPct            86.599303                       # BTB Hit Percentage
system.cpu0.branchPred.BTBHits              116405662                       # Number of BTB hits
system.cpu0.branchPred.BTBLookups           134418706                       # Number of BTB lookups
system.cpu0.branchPred.RASInCorrect                 0                       # Number of incorrect RAS predictions.
system.cpu0.branchPred.condIncorrect          7875337                       # Number of conditional branches incorrect
system.cpu0.branchPred.condPredicted        185902087                       # Number of conditional branches predicted
system.cpu0.branchPred.indirectHits          15830630                       # Number of indirect target hits.
system.cpu0.branchPred.indirectLookups       15925384                       # Number of indirect predictor lookups.
system.cpu0.branchPred.indirectMisses           94754                       # Number of indirect misses.
system.cpu0.branchPred.lookups              236141250                       # Number of BP lookups
system.cpu0.branchPred.usedRAS                      0                       # Number of times the RAS was used to get a target.
system.cpu0.branchPredindirectMispredicted      1662620                       # Number of mispredicted indirect branches.
system.cpu0.commit.amos                        819866                       # Number of atomic instructions committed
system.cpu0.commit.branchMispredicts          5384579                       # The number of times a branch was mispredicted
system.cpu0.commit.branches                 221013700                       # Number of branches committed
system.cpu0.commit.bw_lim_events             29933785                       # number cycles where commit BW limit reached
system.cpu0.commit.commitNonSpecStalls        2466128                       # The number of times commit has been forced to stall to communicate backwards
system.cpu0.commit.commitSquashedInsts       56384479                       # The number of squashed insts skipped by commit
system.cpu0.commit.committedInsts           892399182                       # Number of instructions committed
system.cpu0.commit.committedOps             893221262                       # Number of ops (including micro ops) committed
system.cpu0.commit.committed_per_cycle::samples   1564057603                       # Number of insts commited each cycle
system.cpu0.commit.committed_per_cycle::mean     0.571092                       # Number of insts commited each cycle
system.cpu0.commit.committed_per_cycle::stdev     1.363310                       # Number of insts commited each cycle
system.cpu0.commit.committed_per_cycle::underflows            0      0.00%      0.00% # Number of insts commited each cycle
system.cpu0.commit.committed_per_cycle::0   1130845312     72.30%     72.30% # Number of insts commited each cycle
system.cpu0.commit.committed_per_cycle::1    269547499     17.23%     89.54% # Number of insts commited each cycle
system.cpu0.commit.committed_per_cycle::2     52897664      3.38%     92.92% # Number of insts commited each cycle
system.cpu0.commit.committed_per_cycle::3     58544013      3.74%     96.66% # Number of insts commited each cycle
system.cpu0.commit.committed_per_cycle::4     13780627      0.88%     97.54% # Number of insts commited each cycle
system.cpu0.commit.committed_per_cycle::5      5336528      0.34%     97.88% # Number of insts commited each cycle
system.cpu0.commit.committed_per_cycle::6      1234257      0.08%     97.96% # Number of insts commited each cycle
system.cpu0.commit.committed_per_cycle::7      1937918      0.12%     98.09% # Number of insts commited each cycle
system.cpu0.commit.committed_per_cycle::8     29933785      1.91%    100.00% # Number of insts commited each cycle
system.cpu0.commit.committed_per_cycle::overflows            0      0.00%    100.00% # Number of insts commited each cycle
system.cpu0.commit.committed_per_cycle::min_value            0                       # Number of insts commited each cycle
system.cpu0.commit.committed_per_cycle::max_value            8                       # Number of insts commited each cycle
system.cpu0.commit.committed_per_cycle::total   1564057603                       # Number of insts commited each cycle
system.cpu0.commit.fp_insts                        46                       # Number of committed floating point instructions.
system.cpu0.commit.function_calls            18340878                       # Number of function calls committed.
system.cpu0.commit.int_insts                863509696                       # Number of committed integer instructions.
system.cpu0.commit.loads                    280411789                       # Number of loads committed
system.cpu0.commit.membars                    1641836                       # Number of memory barriers committed
system.cpu0.commit.op_class_0::No_OpClass      1641842      0.18%      0.18% # Class of committed instruction
system.cpu0.commit.op_class_0::IntAlu       491113623     54.98%     55.17% # Class of committed instruction
system.cpu0.commit.op_class_0::IntMult        7835016      0.88%     56.04% # Class of committed instruction
system.cpu0.commit.op_class_0::IntDiv         1638713      0.18%     56.23% # Class of committed instruction
system.cpu0.commit.op_class_0::FloatAdd             0      0.00%     56.23% # Class of committed instruction
system.cpu0.commit.op_class_0::FloatCmp             4      0.00%     56.23% # Class of committed instruction
system.cpu0.commit.op_class_0::FloatCvt            12      0.00%     56.23% # Class of committed instruction
system.cpu0.commit.op_class_0::FloatMult            0      0.00%     56.23% # Class of committed instruction
system.cpu0.commit.op_class_0::FloatMultAcc            0      0.00%     56.23% # Class of committed instruction
system.cpu0.commit.op_class_0::FloatDiv             2      0.00%     56.23% # Class of committed instruction
system.cpu0.commit.op_class_0::FloatMisc            4      0.00%     56.23% # Class of committed instruction
system.cpu0.commit.op_class_0::FloatSqrt            0      0.00%     56.23% # Class of committed instruction
system.cpu0.commit.op_class_0::SimdAdd              0      0.00%     56.23% # Class of committed instruction
system.cpu0.commit.op_class_0::SimdAddAcc            0      0.00%     56.23% # Class of committed instruction
system.cpu0.commit.op_class_0::SimdAlu              0      0.00%     56.23% # Class of committed instruction
system.cpu0.commit.op_class_0::SimdCmp              0      0.00%     56.23% # Class of committed instruction
system.cpu0.commit.op_class_0::SimdCvt              0      0.00%     56.23% # Class of committed instruction
system.cpu0.commit.op_class_0::SimdMisc             0      0.00%     56.23% # Class of committed instruction
system.cpu0.commit.op_class_0::SimdMult             0      0.00%     56.23% # Class of committed instruction
system.cpu0.commit.op_class_0::SimdMultAcc            0      0.00%     56.23% # Class of committed instruction
system.cpu0.commit.op_class_0::SimdShift            0      0.00%     56.23% # Class of committed instruction
system.cpu0.commit.op_class_0::SimdShiftAcc            0      0.00%     56.23% # Class of committed instruction
system.cpu0.commit.op_class_0::SimdDiv              0      0.00%     56.23% # Class of committed instruction
system.cpu0.commit.op_class_0::SimdSqrt             0      0.00%     56.23% # Class of committed instruction
system.cpu0.commit.op_class_0::SimdFloatAdd            0      0.00%     56.23% # Class of committed instruction
system.cpu0.commit.op_class_0::SimdFloatAlu            0      0.00%     56.23% # Class of committed instruction
system.cpu0.commit.op_class_0::SimdFloatCmp            0      0.00%     56.23% # Class of committed instruction
system.cpu0.commit.op_class_0::SimdFloatCvt            0      0.00%     56.23% # Class of committed instruction
system.cpu0.commit.op_class_0::SimdFloatDiv            0      0.00%     56.23% # Class of committed instruction
system.cpu0.commit.op_class_0::SimdFloatMisc            0      0.00%     56.23% # Class of committed instruction
system.cpu0.commit.op_class_0::SimdFloatMult            0      0.00%     56.23% # Class of committed instruction
system.cpu0.commit.op_class_0::SimdFloatMultAcc            0      0.00%     56.23% # Class of committed instruction
system.cpu0.commit.op_class_0::SimdFloatSqrt            0      0.00%     56.23% # Class of committed instruction
system.cpu0.commit.op_class_0::SimdReduceAdd            0      0.00%     56.23% # Class of committed instruction
system.cpu0.commit.op_class_0::SimdReduceAlu            0      0.00%     56.23% # Class of committed instruction
system.cpu0.commit.op_class_0::SimdReduceCmp            0      0.00%     56.23% # Class of committed instruction
system.cpu0.commit.op_class_0::SimdFloatReduceAdd            0      0.00%     56.23% # Class of committed instruction
system.cpu0.commit.op_class_0::SimdFloatReduceCmp            0      0.00%     56.23% # Class of committed instruction
system.cpu0.commit.op_class_0::SimdAes              0      0.00%     56.23% # Class of committed instruction
system.cpu0.commit.op_class_0::SimdAesMix            0      0.00%     56.23% # Class of committed instruction
system.cpu0.commit.op_class_0::SimdSha1Hash            0      0.00%     56.23% # Class of committed instruction
system.cpu0.commit.op_class_0::SimdSha1Hash2            0      0.00%     56.23% # Class of committed instruction
system.cpu0.commit.op_class_0::SimdSha256Hash            0      0.00%     56.23% # Class of committed instruction
system.cpu0.commit.op_class_0::SimdSha256Hash2            0      0.00%     56.23% # Class of committed instruction
system.cpu0.commit.op_class_0::SimdShaSigma2            0      0.00%     56.23% # Class of committed instruction
system.cpu0.commit.op_class_0::SimdShaSigma3            0      0.00%     56.23% # Class of committed instruction
system.cpu0.commit.op_class_0::SimdPredAlu            0      0.00%     56.23% # Class of committed instruction
system.cpu0.commit.op_class_0::MemRead      281231647     31.49%     87.71% # Class of committed instruction
system.cpu0.commit.op_class_0::MemWrite     109760375     12.29%    100.00% # Class of committed instruction
system.cpu0.commit.op_class_0::FloatMemRead            8      0.00%    100.00% # Class of committed instruction
system.cpu0.commit.op_class_0::FloatMemWrite           16      0.00%    100.00% # Class of committed instruction
system.cpu0.commit.op_class_0::IprAccess            0      0.00%    100.00% # Class of committed instruction
system.cpu0.commit.op_class_0::InstPrefetch            0      0.00%    100.00% # Class of committed instruction
system.cpu0.commit.op_class_0::total        893221262                       # Class of committed instruction
system.cpu0.commit.refs                     390992046                       # Number of memory references committed
system.cpu0.commit.swp_count                        0                       # Number of s/w prefetches committed
system.cpu0.commit.vec_insts                        0                       # Number of committed Vector instructions.
system.cpu0.committedInsts                  892399182                       # Number of Instructions Simulated
system.cpu0.committedOps                    893221262                       # Number of Ops (including micro ops) Simulated
system.cpu0.cpi                              1.917805                       # CPI: Cycles Per Instruction
system.cpu0.cpi_total                        1.917805                       # CPI: Total CPI of All Threads
system.cpu0.decode.BlockedCycles            194205852                       # Number of cycles decode is blocked
system.cpu0.decode.BranchMispred              2495001                       # Number of times decode detected a branch misprediction
system.cpu0.decode.BranchResolved           115462026                       # Number of times decode resolved a branch
system.cpu0.decode.DecodedInsts             963863280                       # Number of instructions handled by decode
system.cpu0.decode.IdleCycles               693290922                       # Number of cycles decode is idle
system.cpu0.decode.RunCycles                678978026                       # Number of cycles decode is running
system.cpu0.decode.SquashCycles               5393891                       # Number of cycles decode is squashing
system.cpu0.decode.SquashedInsts              3979278                       # Number of squashed instructions handled by decode
system.cpu0.decode.UnblockCycles              2921281                       # Number of cycles decode is unblocking
system.cpu0.dtb.accesses                            0                       # DTB accesses
system.cpu0.dtb.hits                                0                       # DTB hits
system.cpu0.dtb.misses                              0                       # DTB misses
system.cpu0.dtb.read_accesses                       0                       # DTB read accesses
system.cpu0.dtb.read_hits                           0                       # DTB read hits
system.cpu0.dtb.read_misses                         0                       # DTB read misses
system.cpu0.dtb.write_accesses                      0                       # DTB write accesses
system.cpu0.dtb.write_hits                          0                       # DTB write hits
system.cpu0.dtb.write_misses                        0                       # DTB write misses
system.cpu0.fetch.Branches                  236141250                       # Number of branches that fetch encountered
system.cpu0.fetch.CacheLines                169744678                       # Number of cache lines fetched
system.cpu0.fetch.Cycles                    877382565                       # Number of cycles fetch has run and was not squashing or blocked
system.cpu0.fetch.IcacheSquashes              3883065                       # Number of outstanding Icache misses that were squashed
system.cpu0.fetch.IcacheWaitRetryStallCycles          108                       # Number of stall cycles due to full MSHR
system.cpu0.fetch.Insts                     979787787                       # Number of instructions fetch has processed
system.cpu0.fetch.MiscStallCycles                  11                       # Number of cycles fetch has spent waiting on interrupts, or bad addresses, or out of MSHRs
system.cpu0.fetch.SquashCycles               15769298                       # Number of cycles fetch has spent squashing
system.cpu0.fetch.branchRate                 0.137977                       # Number of branch fetches per cycle
system.cpu0.fetch.icacheStallCycles         689522639                       # Number of cycles fetch is stalled on an Icache miss
system.cpu0.fetch.predictedBranches         132236292                       # Number of branches that fetch has predicted taken
system.cpu0.fetch.rate                       0.572491                       # Number of inst fetches per cycle
system.cpu0.fetch.rateDist::samples        1574789972                       # Number of instructions fetched each cycle (Total)
system.cpu0.fetch.rateDist::mean             0.624083                       # Number of instructions fetched each cycle (Total)
system.cpu0.fetch.rateDist::stdev            0.895640                       # Number of instructions fetched each cycle (Total)
system.cpu0.fetch.rateDist::underflows              0      0.00%      0.00% # Number of instructions fetched each cycle (Total)
system.cpu0.fetch.rateDist::0               872441041     55.40%     55.40% # Number of instructions fetched each cycle (Total)
system.cpu0.fetch.rateDist::1               523646397     33.25%     88.65% # Number of instructions fetched each cycle (Total)
system.cpu0.fetch.rateDist::2               108470516      6.89%     95.54% # Number of instructions fetched each cycle (Total)
system.cpu0.fetch.rateDist::3                56397985      3.58%     99.12% # Number of instructions fetched each cycle (Total)
system.cpu0.fetch.rateDist::4                 5004864      0.32%     99.44% # Number of instructions fetched each cycle (Total)
system.cpu0.fetch.rateDist::5                 4955706      0.31%     99.75% # Number of instructions fetched each cycle (Total)
system.cpu0.fetch.rateDist::6                  561787      0.04%     99.79% # Number of instructions fetched each cycle (Total)
system.cpu0.fetch.rateDist::7                 1643498      0.10%     99.89% # Number of instructions fetched each cycle (Total)
system.cpu0.fetch.rateDist::8                 1668178      0.11%    100.00% # Number of instructions fetched each cycle (Total)
system.cpu0.fetch.rateDist::overflows               0      0.00%    100.00% # Number of instructions fetched each cycle (Total)
system.cpu0.fetch.rateDist::min_value               0                       # Number of instructions fetched each cycle (Total)
system.cpu0.fetch.rateDist::max_value               8                       # Number of instructions fetched each cycle (Total)
system.cpu0.fetch.rateDist::total          1574789972                       # Number of instructions fetched each cycle (Total)
system.cpu0.fp_regfile_reads                       40                       # number of floating regfile reads
system.cpu0.fp_regfile_writes                      22                       # number of floating regfile writes
system.cpu0.idleCycles                      136657661                       # Total number of cycles that the CPU has spent unscheduled due to idling
system.cpu0.iew.branchMispredicts             5428453                       # Number of branch mispredicts detected at execute
system.cpu0.iew.exec_branches               226968861                       # Number of branches executed
system.cpu0.iew.exec_nop                            0                       # number of nop insts executed
system.cpu0.iew.exec_rate                    0.542573                       # Inst execution rate
system.cpu0.iew.exec_refs                   410734622                       # number of memory reference insts executed
system.cpu0.iew.exec_stores                 112942332                       # Number of stores executed
system.cpu0.iew.exec_swp                            0                       # number of swp insts executed
system.cpu0.iew.iewBlockCycles              159403893                       # Number of cycles IEW is blocking
system.cpu0.iew.iewDispLoadInsts            302642798                       # Number of dispatched load instructions
system.cpu0.iew.iewDispNonSpecInsts           1997312                       # Number of dispatched non-speculative instructions
system.cpu0.iew.iewDispSquashedInsts          1536213                       # Number of squashed instructions skipped by dispatch
system.cpu0.iew.iewDispStoreInsts           117180584                       # Number of dispatched store instructions
system.cpu0.iew.iewDispatchedInsts          949596748                       # Number of instructions dispatched to IQ
system.cpu0.iew.iewExecLoadInsts            297792290                       # Number of load instructions executed
system.cpu0.iew.iewExecSquashedInsts          4394619                       # Number of squashed instructions skipped in execute
system.cpu0.iew.iewExecutedInsts            928584501                       # Number of executed instructions
system.cpu0.iew.iewIQFullEvents                785144                       # Number of times the IQ has become full, causing a stall
system.cpu0.iew.iewIdleCycles                       0                       # Number of cycles IEW is idle
system.cpu0.iew.iewLSQFullEvents              3044728                       # Number of times the LSQ has become full, causing a stall
system.cpu0.iew.iewSquashCycles               5393891                       # Number of cycles IEW is squashing
system.cpu0.iew.iewUnblockCycles              4519869                       # Number of cycles IEW is unblocking
system.cpu0.iew.lsq.thread0.blockedLoads            0                       # Number of blocked loads due to partial load-store forwarding
system.cpu0.iew.lsq.thread0.cacheBlocked        71752                       # Number of times an access to memory failed due to the cache being blocked
system.cpu0.iew.lsq.thread0.forwLoads        16646395                       # Number of loads that had data forwarded from stores
system.cpu0.iew.lsq.thread0.ignoredResponses        14570                       # Number of memory responses ignored because the instruction is squashed
system.cpu0.iew.lsq.thread0.invAddrLoads            0                       # Number of loads ignored due to an invalid address
system.cpu0.iew.lsq.thread0.invAddrSwpfs            0                       # Number of software prefetches ignored due to an invalid address
system.cpu0.iew.lsq.thread0.memOrderViolation         9934                       # Number of memory ordering violations
system.cpu0.iew.lsq.thread0.rescheduledLoads      3758596                       # Number of loads that were rescheduled
system.cpu0.iew.lsq.thread0.squashedLoads     22231009                       # Number of loads squashed
system.cpu0.iew.lsq.thread0.squashedStores      6600327                       # Number of stores squashed
system.cpu0.iew.memOrderViolationEvents          9934                       # Number of memory order violations
system.cpu0.iew.predictedNotTakenIncorrect       732553                       # Number of branches that were predicted not taken incorrectly
system.cpu0.iew.predictedTakenIncorrect       4695900                       # Number of branches that were predicted taken incorrectly
system.cpu0.iew.wb_consumers                374370526                       # num instructions consuming a value
system.cpu0.iew.wb_count                    920470631                       # cumulative count of insts written-back
system.cpu0.iew.wb_fanout                    0.891422                       # average fanout of values written-back
system.cpu0.iew.wb_producers                333722064                       # num instructions producing a value
system.cpu0.iew.wb_rate                      0.537832                       # insts written-back per cycle
system.cpu0.iew.wb_sent                     920517515                       # cumulative count of insts sent to commit
system.cpu0.int_regfile_reads              1131785101                       # number of integer regfile reads
system.cpu0.int_regfile_writes              588202535                       # number of integer regfile writes
system.cpu0.ipc                              0.521429                       # IPC: Instructions Per Cycle
system.cpu0.ipc_total                        0.521429                       # IPC: Total IPC of All Threads
system.cpu0.iq.FU_type_0::No_OpClass          1643322      0.18%      0.18% # Type of FU issued
system.cpu0.iq.FU_type_0::IntAlu            508083974     54.46%     54.63% # Type of FU issued
system.cpu0.iq.FU_type_0::IntMult             7839399      0.84%     55.47% # Type of FU issued
system.cpu0.iq.FU_type_0::IntDiv              1639152      0.18%     55.65% # Type of FU issued
system.cpu0.iq.FU_type_0::FloatAdd                  0      0.00%     55.65% # Type of FU issued
system.cpu0.iq.FU_type_0::FloatCmp                  4      0.00%     55.65% # Type of FU issued
system.cpu0.iq.FU_type_0::FloatCvt                 12      0.00%     55.65% # Type of FU issued
system.cpu0.iq.FU_type_0::FloatMult                 0      0.00%     55.65% # Type of FU issued
system.cpu0.iq.FU_type_0::FloatMultAcc              0      0.00%     55.65% # Type of FU issued
system.cpu0.iq.FU_type_0::FloatDiv                  2      0.00%     55.65% # Type of FU issued
system.cpu0.iq.FU_type_0::FloatMisc                 4      0.00%     55.65% # Type of FU issued
system.cpu0.iq.FU_type_0::FloatSqrt                 0      0.00%     55.65% # Type of FU issued
system.cpu0.iq.FU_type_0::SimdAdd                   0      0.00%     55.65% # Type of FU issued
system.cpu0.iq.FU_type_0::SimdAddAcc                0      0.00%     55.65% # Type of FU issued
system.cpu0.iq.FU_type_0::SimdAlu                   0      0.00%     55.65% # Type of FU issued
system.cpu0.iq.FU_type_0::SimdCmp                   0      0.00%     55.65% # Type of FU issued
system.cpu0.iq.FU_type_0::SimdCvt                   0      0.00%     55.65% # Type of FU issued
system.cpu0.iq.FU_type_0::SimdMisc                  0      0.00%     55.65% # Type of FU issued
system.cpu0.iq.FU_type_0::SimdMult                  0      0.00%     55.65% # Type of FU issued
system.cpu0.iq.FU_type_0::SimdMultAcc               0      0.00%     55.65% # Type of FU issued
system.cpu0.iq.FU_type_0::SimdShift                 0      0.00%     55.65% # Type of FU issued
system.cpu0.iq.FU_type_0::SimdShiftAcc              0      0.00%     55.65% # Type of FU issued
system.cpu0.iq.FU_type_0::SimdDiv                   0      0.00%     55.65% # Type of FU issued
system.cpu0.iq.FU_type_0::SimdSqrt                  0      0.00%     55.65% # Type of FU issued
system.cpu0.iq.FU_type_0::SimdFloatAdd              0      0.00%     55.65% # Type of FU issued
system.cpu0.iq.FU_type_0::SimdFloatAlu              0      0.00%     55.65% # Type of FU issued
system.cpu0.iq.FU_type_0::SimdFloatCmp              0      0.00%     55.65% # Type of FU issued
system.cpu0.iq.FU_type_0::SimdFloatCvt              0      0.00%     55.65% # Type of FU issued
system.cpu0.iq.FU_type_0::SimdFloatDiv              0      0.00%     55.65% # Type of FU issued
system.cpu0.iq.FU_type_0::SimdFloatMisc             0      0.00%     55.65% # Type of FU issued
system.cpu0.iq.FU_type_0::SimdFloatMult             0      0.00%     55.65% # Type of FU issued
system.cpu0.iq.FU_type_0::SimdFloatMultAcc            0      0.00%     55.65% # Type of FU issued
system.cpu0.iq.FU_type_0::SimdFloatSqrt             0      0.00%     55.65% # Type of FU issued
system.cpu0.iq.FU_type_0::SimdReduceAdd             0      0.00%     55.65% # Type of FU issued
system.cpu0.iq.FU_type_0::SimdReduceAlu             0      0.00%     55.65% # Type of FU issued
system.cpu0.iq.FU_type_0::SimdReduceCmp             0      0.00%     55.65% # Type of FU issued
system.cpu0.iq.FU_type_0::SimdFloatReduceAdd            0      0.00%     55.65% # Type of FU issued
system.cpu0.iq.FU_type_0::SimdFloatReduceCmp            0      0.00%     55.65% # Type of FU issued
system.cpu0.iq.FU_type_0::SimdAes                   0      0.00%     55.65% # Type of FU issued
system.cpu0.iq.FU_type_0::SimdAesMix                0      0.00%     55.65% # Type of FU issued
system.cpu0.iq.FU_type_0::SimdSha1Hash              0      0.00%     55.65% # Type of FU issued
system.cpu0.iq.FU_type_0::SimdSha1Hash2             0      0.00%     55.65% # Type of FU issued
system.cpu0.iq.FU_type_0::SimdSha256Hash            0      0.00%     55.65% # Type of FU issued
system.cpu0.iq.FU_type_0::SimdSha256Hash2            0      0.00%     55.65% # Type of FU issued
system.cpu0.iq.FU_type_0::SimdShaSigma2             0      0.00%     55.65% # Type of FU issued
system.cpu0.iq.FU_type_0::SimdShaSigma3             0      0.00%     55.65% # Type of FU issued
system.cpu0.iq.FU_type_0::SimdPredAlu               0      0.00%     55.65% # Type of FU issued
system.cpu0.iq.FU_type_0::MemRead           300244899     32.18%     87.83% # Type of FU issued
system.cpu0.iq.FU_type_0::MemWrite          113528328     12.17%    100.00% # Type of FU issued
system.cpu0.iq.FU_type_0::FloatMemRead              9      0.00%    100.00% # Type of FU issued
system.cpu0.iq.FU_type_0::FloatMemWrite            16      0.00%    100.00% # Type of FU issued
system.cpu0.iq.FU_type_0::IprAccess                 0      0.00%    100.00% # Type of FU issued
system.cpu0.iq.FU_type_0::InstPrefetch              0      0.00%    100.00% # Type of FU issued
system.cpu0.iq.FU_type_0::total             932979121                       # Type of FU issued
system.cpu0.iq.fp_alu_accesses                     49                       # Number of floating point alu accesses
system.cpu0.iq.fp_inst_queue_reads                 96                       # Number of floating instruction queue reads
system.cpu0.iq.fp_inst_queue_wakeup_accesses           46                       # Number of floating instruction queue wakeup accesses
system.cpu0.iq.fp_inst_queue_writes                48                       # Number of floating instruction queue writes
system.cpu0.iq.fu_busy_cnt                     999276                       # FU busy when requested
system.cpu0.iq.fu_busy_rate                  0.001071                       # FU busy rate (busy events/executed inst)
system.cpu0.iq.fu_full::No_OpClass                  0      0.00%      0.00% # attempts to use FU when none available
system.cpu0.iq.fu_full::IntAlu                 174657     17.48%     17.48% # attempts to use FU when none available
system.cpu0.iq.fu_full::IntMult                     0      0.00%     17.48% # attempts to use FU when none available
system.cpu0.iq.fu_full::IntDiv                      0      0.00%     17.48% # attempts to use FU when none available
system.cpu0.iq.fu_full::FloatAdd                    0      0.00%     17.48% # attempts to use FU when none available
system.cpu0.iq.fu_full::FloatCmp                    0      0.00%     17.48% # attempts to use FU when none available
system.cpu0.iq.fu_full::FloatCvt                    0      0.00%     17.48% # attempts to use FU when none available
system.cpu0.iq.fu_full::FloatMult                   0      0.00%     17.48% # attempts to use FU when none available
system.cpu0.iq.fu_full::FloatMultAcc                0      0.00%     17.48% # attempts to use FU when none available
system.cpu0.iq.fu_full::FloatDiv                    0      0.00%     17.48% # attempts to use FU when none available
system.cpu0.iq.fu_full::FloatMisc                   0      0.00%     17.48% # attempts to use FU when none available
system.cpu0.iq.fu_full::FloatSqrt                   0      0.00%     17.48% # attempts to use FU when none available
system.cpu0.iq.fu_full::SimdAdd                     0      0.00%     17.48% # attempts to use FU when none available
system.cpu0.iq.fu_full::SimdAddAcc                  0      0.00%     17.48% # attempts to use FU when none available
system.cpu0.iq.fu_full::SimdAlu                     0      0.00%     17.48% # attempts to use FU when none available
system.cpu0.iq.fu_full::SimdCmp                     0      0.00%     17.48% # attempts to use FU when none available
system.cpu0.iq.fu_full::SimdCvt                     0      0.00%     17.48% # attempts to use FU when none available
system.cpu0.iq.fu_full::SimdMisc                    0      0.00%     17.48% # attempts to use FU when none available
system.cpu0.iq.fu_full::SimdMult                    0      0.00%     17.48% # attempts to use FU when none available
system.cpu0.iq.fu_full::SimdMultAcc                 0      0.00%     17.48% # attempts to use FU when none available
system.cpu0.iq.fu_full::SimdShift                   0      0.00%     17.48% # attempts to use FU when none available
system.cpu0.iq.fu_full::SimdShiftAcc                0      0.00%     17.48% # attempts to use FU when none available
system.cpu0.iq.fu_full::SimdDiv                     0      0.00%     17.48% # attempts to use FU when none available
system.cpu0.iq.fu_full::SimdSqrt                    0      0.00%     17.48% # attempts to use FU when none available
system.cpu0.iq.fu_full::SimdFloatAdd                0      0.00%     17.48% # attempts to use FU when none available
system.cpu0.iq.fu_full::SimdFloatAlu                0      0.00%     17.48% # attempts to use FU when none available
system.cpu0.iq.fu_full::SimdFloatCmp                0      0.00%     17.48% # attempts to use FU when none available
system.cpu0.iq.fu_full::SimdFloatCvt                0      0.00%     17.48% # attempts to use FU when none available
system.cpu0.iq.fu_full::SimdFloatDiv                0      0.00%     17.48% # attempts to use FU when none available
system.cpu0.iq.fu_full::SimdFloatMisc               0      0.00%     17.48% # attempts to use FU when none available
system.cpu0.iq.fu_full::SimdFloatMult               0      0.00%     17.48% # attempts to use FU when none available
system.cpu0.iq.fu_full::SimdFloatMultAcc            0      0.00%     17.48% # attempts to use FU when none available
system.cpu0.iq.fu_full::SimdFloatSqrt               0      0.00%     17.48% # attempts to use FU when none available
system.cpu0.iq.fu_full::SimdReduceAdd               0      0.00%     17.48% # attempts to use FU when none available
system.cpu0.iq.fu_full::SimdReduceAlu               0      0.00%     17.48% # attempts to use FU when none available
system.cpu0.iq.fu_full::SimdReduceCmp               0      0.00%     17.48% # attempts to use FU when none available
system.cpu0.iq.fu_full::SimdFloatReduceAdd            0      0.00%     17.48% # attempts to use FU when none available
system.cpu0.iq.fu_full::SimdFloatReduceCmp            0      0.00%     17.48% # attempts to use FU when none available
system.cpu0.iq.fu_full::SimdAes                     0      0.00%     17.48% # attempts to use FU when none available
system.cpu0.iq.fu_full::SimdAesMix                  0      0.00%     17.48% # attempts to use FU when none available
system.cpu0.iq.fu_full::SimdSha1Hash                0      0.00%     17.48% # attempts to use FU when none available
system.cpu0.iq.fu_full::SimdSha1Hash2               0      0.00%     17.48% # attempts to use FU when none available
system.cpu0.iq.fu_full::SimdSha256Hash              0      0.00%     17.48% # attempts to use FU when none available
system.cpu0.iq.fu_full::SimdSha256Hash2             0      0.00%     17.48% # attempts to use FU when none available
system.cpu0.iq.fu_full::SimdShaSigma2               0      0.00%     17.48% # attempts to use FU when none available
system.cpu0.iq.fu_full::SimdShaSigma3               0      0.00%     17.48% # attempts to use FU when none available
system.cpu0.iq.fu_full::SimdPredAlu                 0      0.00%     17.48% # attempts to use FU when none available
system.cpu0.iq.fu_full::MemRead                756615     75.72%     93.19% # attempts to use FU when none available
system.cpu0.iq.fu_full::MemWrite                68002      6.81%    100.00% # attempts to use FU when none available
system.cpu0.iq.fu_full::FloatMemRead                0      0.00%    100.00% # attempts to use FU when none available
system.cpu0.iq.fu_full::FloatMemWrite               2      0.00%    100.00% # attempts to use FU when none available
system.cpu0.iq.fu_full::IprAccess                   0      0.00%    100.00% # attempts to use FU when none available
system.cpu0.iq.fu_full::InstPrefetch                0      0.00%    100.00% # attempts to use FU when none available
system.cpu0.iq.int_alu_accesses             932335026                       # Number of integer alu accesses
system.cpu0.iq.int_inst_queue_reads        3441806892                       # Number of integer instruction queue reads
system.cpu0.iq.int_inst_queue_wakeup_accesses    920470585                       # Number of integer instruction queue wakeup accesses
system.cpu0.iq.int_inst_queue_writes       1005981077                       # Number of integer instruction queue writes
system.cpu0.iq.iqInstsAdded                 943626994                       # Number of instructions added to the IQ (excludes non-spec)
system.cpu0.iq.iqInstsIssued                932979121                       # Number of instructions issued
system.cpu0.iq.iqNonSpecInstsAdded            5969754                       # Number of non-speculative instructions added to the IQ
system.cpu0.iq.iqSquashedInstsExamined       56375482                       # Number of squashed instructions iterated over during squash; mainly for profiling
system.cpu0.iq.iqSquashedInstsIssued            59499                       # Number of squashed instructions issued
system.cpu0.iq.iqSquashedNonSpecRemoved       3503626                       # Number of squashed non-spec instructions that were removed
system.cpu0.iq.iqSquashedOperandsExamined     30638446                       # Number of squashed operands that are examined and possibly removed from graph
system.cpu0.iq.issued_per_cycle::samples   1574789972                       # Number of insts issued each cycle
system.cpu0.iq.issued_per_cycle::mean        0.592447                       # Number of insts issued each cycle
system.cpu0.iq.issued_per_cycle::stdev       0.801911                       # Number of insts issued each cycle
system.cpu0.iq.issued_per_cycle::underflows            0      0.00%      0.00% # Number of insts issued each cycle
system.cpu0.iq.issued_per_cycle::0          890812204     56.57%     56.57% # Number of insts issued each cycle
system.cpu0.iq.issued_per_cycle::1          482040168     30.61%     87.18% # Number of insts issued each cycle
system.cpu0.iq.issued_per_cycle::2          167601593     10.64%     97.82% # Number of insts issued each cycle
system.cpu0.iq.issued_per_cycle::3           26498273      1.68%     99.50% # Number of insts issued each cycle
system.cpu0.iq.issued_per_cycle::4            5124939      0.33%     99.83% # Number of insts issued each cycle
system.cpu0.iq.issued_per_cycle::5             816936      0.05%     99.88% # Number of insts issued each cycle
system.cpu0.iq.issued_per_cycle::6            1696284      0.11%     99.99% # Number of insts issued each cycle
system.cpu0.iq.issued_per_cycle::7             117792      0.01%     99.99% # Number of insts issued each cycle
system.cpu0.iq.issued_per_cycle::8              81783      0.01%    100.00% # Number of insts issued each cycle
system.cpu0.iq.issued_per_cycle::overflows            0      0.00%    100.00% # Number of insts issued each cycle
system.cpu0.iq.issued_per_cycle::min_value            0                       # Number of insts issued each cycle
system.cpu0.iq.issued_per_cycle::max_value            8                       # Number of insts issued each cycle
system.cpu0.iq.issued_per_cycle::total     1574789972                       # Number of insts issued each cycle
system.cpu0.iq.rate                          0.545140                       # Inst issue rate
system.cpu0.iq.vec_alu_accesses                     0                       # Number of vector alu accesses
system.cpu0.iq.vec_inst_queue_reads                 0                       # Number of vector instruction queue reads
system.cpu0.iq.vec_inst_queue_wakeup_accesses            0                       # Number of vector instruction queue wakeup accesses
system.cpu0.iq.vec_inst_queue_writes                0                       # Number of vector instruction queue writes
system.cpu0.itb.accesses                            0                       # DTB accesses
system.cpu0.itb.hits                                0                       # DTB hits
system.cpu0.itb.misses                              0                       # DTB misses
system.cpu0.itb.read_accesses                       0                       # DTB read accesses
system.cpu0.itb.read_hits                           0                       # DTB read hits
system.cpu0.itb.read_misses                         0                       # DTB read misses
system.cpu0.itb.write_accesses                      0                       # DTB write accesses
system.cpu0.itb.write_hits                          0                       # DTB write hits
system.cpu0.itb.write_misses                        0                       # DTB write misses
system.cpu0.memDep0.conflictingLoads         15331257                       # Number of conflicting loads.
system.cpu0.memDep0.conflictingStores         2808092                       # Number of conflicting stores.
system.cpu0.memDep0.insertedLoads           302642798                       # Number of loads inserted to the mem dependence unit.
system.cpu0.memDep0.insertedStores          117180584                       # Number of stores inserted to the mem dependence unit.
system.cpu0.misc_regfile_reads                   1508                       # number of misc regfile reads
system.cpu0.misc_regfile_writes                    22                       # number of misc regfile writes
system.cpu0.numCycles                      1711447633                       # number of cpu cycles simulated
system.cpu0.numWorkItemsCompleted                   0                       # number of work items this cpu completed
system.cpu0.numWorkItemsStarted                     0                       # number of work items this cpu started
system.cpu0.quiesceCycles                    27672809                       # Total number of cycles that CPU has spent quiesced or waiting for an interrupt
system.cpu0.rename.BlockCycles              168812687                       # Number of cycles rename is blocking
system.cpu0.rename.CommittedMaps            569156398                       # Number of HB maps that are committed
system.cpu0.rename.IQFullEvents               3778657                       # Number of times rename has blocked due to IQ full
system.cpu0.rename.IdleCycles               699156550                       # Number of cycles rename is idle
system.cpu0.rename.LQFullEvents               8824686                       # Number of times rename has blocked due to LQ full
system.cpu0.rename.ROBFullEvents                 8263                       # Number of times rename has blocked due to ROB full
system.cpu0.rename.RenameLookups           1168036100                       # Number of register rename lookups that rename has made
system.cpu0.rename.RenamedInsts             957652825                       # Number of instructions processed by rename
system.cpu0.rename.RenamedOperands          613640144                       # Number of destination operands rename has renamed
system.cpu0.rename.RunCycles                674853565                       # Number of cycles rename is running
system.cpu0.rename.SQFullEvents              12863983                       # Number of times rename has blocked due to SQ full
system.cpu0.rename.SquashCycles               5393891                       # Number of cycles rename is squashing
system.cpu0.rename.UnblockCycles             26438398                       # Number of cycles rename is unblocking
system.cpu0.rename.UndoneMaps                44483738                       # Number of HB maps that are undone due to squashing
system.cpu0.rename.fp_rename_lookups               40                       # Number of floating rename lookups
system.cpu0.rename.int_rename_lookups      1168036060                       # Number of integer rename lookups
system.cpu0.rename.serializeStallCycles        134881                       # count of cycles rename stalled for serializing inst
system.cpu0.rename.serializingInsts              4576                       # count of serializing insts renamed
system.cpu0.rename.skidInsts                 10678517                       # count of insts added to the skid buffer
system.cpu0.rename.tempSerializingInsts          4568                       # count of temporary serializing insts renamed
system.cpu0.rob.rob_reads                  2483710514                       # The number of ROB reads
system.cpu0.rob.rob_writes                 1909948295                       # The number of ROB writes
system.cpu0.timesIdled                       25530629                       # Number of times that the entire CPU went into an idle state and unscheduled itself
system.cpu0.workload.numSyscalls                 1475                       # Number of system calls
system.cpu1.branchPred.BTBCorrect                   0                       # Number of correct BTB predictions (this stat may not work properly.
system.cpu1.branchPred.BTBHitPct            85.553835                       # BTB Hit Percentage
system.cpu1.branchPred.BTBHits               11299817                       # Number of BTB hits
system.cpu1.branchPred.BTBLookups            13207844                       # Number of BTB lookups
system.cpu1.branchPred.RASInCorrect                 0                       # Number of incorrect RAS predictions.
system.cpu1.branchPred.condIncorrect          3046912                       # Number of conditional branches incorrect
system.cpu1.branchPred.condPredicted         18163308                       # Number of conditional branches predicted
system.cpu1.branchPred.indirectHits            228951                       # Number of indirect target hits.
system.cpu1.branchPred.indirectLookups         314200                       # Number of indirect predictor lookups.
system.cpu1.branchPred.indirectMisses           85249                       # Number of indirect misses.
system.cpu1.branchPred.lookups               20543330                       # Number of BP lookups
system.cpu1.branchPred.usedRAS                      0                       # Number of times the RAS was used to get a target.
system.cpu1.branchPredindirectMispredicted        23687                       # Number of mispredicted indirect branches.
system.cpu1.commit.amos                        819630                       # Number of atomic instructions committed
system.cpu1.commit.branchMispredicts          2170860                       # The number of times a branch was mispredicted
system.cpu1.commit.branches                  10300254                       # Number of branches committed
system.cpu1.commit.bw_lim_events               733720                       # number cycles where commit BW limit reached
system.cpu1.commit.commitNonSpecStalls        2459594                       # The number of times commit has been forced to stall to communicate backwards
system.cpu1.commit.commitSquashedInsts       30113724                       # The number of squashed insts skipped by commit
system.cpu1.commit.committedInsts            41844492                       # Number of instructions committed
system.cpu1.commit.committedOps              42664322                       # Number of ops (including micro ops) committed
system.cpu1.commit.committed_per_cycle::samples    232791269                       # Number of insts commited each cycle
system.cpu1.commit.committed_per_cycle::mean     0.183273                       # Number of insts commited each cycle
system.cpu1.commit.committed_per_cycle::stdev     0.776572                       # Number of insts commited each cycle
system.cpu1.commit.committed_per_cycle::underflows            0      0.00%      0.00% # Number of insts commited each cycle
system.cpu1.commit.committed_per_cycle::0    213089471     91.54%     91.54% # Number of insts commited each cycle
system.cpu1.commit.committed_per_cycle::1      9689793      4.16%     95.70% # Number of insts commited each cycle
system.cpu1.commit.committed_per_cycle::2      4226244      1.82%     97.51% # Number of insts commited each cycle
system.cpu1.commit.committed_per_cycle::3      3113769      1.34%     98.85% # Number of insts commited each cycle
system.cpu1.commit.committed_per_cycle::4      1099503      0.47%     99.32% # Number of insts commited each cycle
system.cpu1.commit.committed_per_cycle::5       199058      0.09%     99.41% # Number of insts commited each cycle
system.cpu1.commit.committed_per_cycle::6       560305      0.24%     99.65% # Number of insts commited each cycle
system.cpu1.commit.committed_per_cycle::7        79406      0.03%     99.68% # Number of insts commited each cycle
system.cpu1.commit.committed_per_cycle::8       733720      0.32%    100.00% # Number of insts commited each cycle
system.cpu1.commit.committed_per_cycle::overflows            0      0.00%    100.00% # Number of insts commited each cycle
system.cpu1.commit.committed_per_cycle::min_value            0                       # Number of insts commited each cycle
system.cpu1.commit.committed_per_cycle::max_value            8                       # Number of insts commited each cycle
system.cpu1.commit.committed_per_cycle::total    232791269                       # Number of insts commited each cycle
system.cpu1.commit.fp_insts                        12                       # Number of committed floating point instructions.
system.cpu1.commit.function_calls              317217                       # Number of function calls committed.
system.cpu1.commit.int_insts                 40178636                       # Number of committed integer instructions.
system.cpu1.commit.loads                     11552298                       # Number of loads committed
system.cpu1.commit.membars                    1639356                       # Number of memory barriers committed
system.cpu1.commit.op_class_0::No_OpClass      1639356      3.84%      3.84% # Class of committed instruction
system.cpu1.commit.op_class_0::IntAlu        24988128     58.57%     62.41% # Class of committed instruction
system.cpu1.commit.op_class_0::IntMult             43      0.00%     62.41% # Class of committed instruction
system.cpu1.commit.op_class_0::IntDiv              86      0.00%     62.41% # Class of committed instruction
system.cpu1.commit.op_class_0::FloatAdd             0      0.00%     62.41% # Class of committed instruction
system.cpu1.commit.op_class_0::FloatCmp             0      0.00%     62.41% # Class of committed instruction
system.cpu1.commit.op_class_0::FloatCvt             0      0.00%     62.41% # Class of committed instruction
system.cpu1.commit.op_class_0::FloatMult            0      0.00%     62.41% # Class of committed instruction
system.cpu1.commit.op_class_0::FloatMultAcc            0      0.00%     62.41% # Class of committed instruction
system.cpu1.commit.op_class_0::FloatDiv             0      0.00%     62.41% # Class of committed instruction
system.cpu1.commit.op_class_0::FloatMisc            0      0.00%     62.41% # Class of committed instruction
system.cpu1.commit.op_class_0::FloatSqrt            0      0.00%     62.41% # Class of committed instruction
system.cpu1.commit.op_class_0::SimdAdd              0      0.00%     62.41% # Class of committed instruction
system.cpu1.commit.op_class_0::SimdAddAcc            0      0.00%     62.41% # Class of committed instruction
system.cpu1.commit.op_class_0::SimdAlu              0      0.00%     62.41% # Class of committed instruction
system.cpu1.commit.op_class_0::SimdCmp              0      0.00%     62.41% # Class of committed instruction
system.cpu1.commit.op_class_0::SimdCvt              0      0.00%     62.41% # Class of committed instruction
system.cpu1.commit.op_class_0::SimdMisc             0      0.00%     62.41% # Class of committed instruction
system.cpu1.commit.op_class_0::SimdMult             0      0.00%     62.41% # Class of committed instruction
system.cpu1.commit.op_class_0::SimdMultAcc            0      0.00%     62.41% # Class of committed instruction
system.cpu1.commit.op_class_0::SimdShift            0      0.00%     62.41% # Class of committed instruction
system.cpu1.commit.op_class_0::SimdShiftAcc            0      0.00%     62.41% # Class of committed instruction
system.cpu1.commit.op_class_0::SimdDiv              0      0.00%     62.41% # Class of committed instruction
system.cpu1.commit.op_class_0::SimdSqrt             0      0.00%     62.41% # Class of committed instruction
system.cpu1.commit.op_class_0::SimdFloatAdd            0      0.00%     62.41% # Class of committed instruction
system.cpu1.commit.op_class_0::SimdFloatAlu            0      0.00%     62.41% # Class of committed instruction
system.cpu1.commit.op_class_0::SimdFloatCmp            0      0.00%     62.41% # Class of committed instruction
system.cpu1.commit.op_class_0::SimdFloatCvt            0      0.00%     62.41% # Class of committed instruction
system.cpu1.commit.op_class_0::SimdFloatDiv            0      0.00%     62.41% # Class of committed instruction
system.cpu1.commit.op_class_0::SimdFloatMisc            0      0.00%     62.41% # Class of committed instruction
system.cpu1.commit.op_class_0::SimdFloatMult            0      0.00%     62.41% # Class of committed instruction
system.cpu1.commit.op_class_0::SimdFloatMultAcc            0      0.00%     62.41% # Class of committed instruction
system.cpu1.commit.op_class_0::SimdFloatSqrt            0      0.00%     62.41% # Class of committed instruction
system.cpu1.commit.op_class_0::SimdReduceAdd            0      0.00%     62.41% # Class of committed instruction
system.cpu1.commit.op_class_0::SimdReduceAlu            0      0.00%     62.41% # Class of committed instruction
system.cpu1.commit.op_class_0::SimdReduceCmp            0      0.00%     62.41% # Class of committed instruction
system.cpu1.commit.op_class_0::SimdFloatReduceAdd            0      0.00%     62.41% # Class of committed instruction
system.cpu1.commit.op_class_0::SimdFloatReduceCmp            0      0.00%     62.41% # Class of committed instruction
system.cpu1.commit.op_class_0::SimdAes              0      0.00%     62.41% # Class of committed instruction
system.cpu1.commit.op_class_0::SimdAesMix            0      0.00%     62.41% # Class of committed instruction
system.cpu1.commit.op_class_0::SimdSha1Hash            0      0.00%     62.41% # Class of committed instruction
system.cpu1.commit.op_class_0::SimdSha1Hash2            0      0.00%     62.41% # Class of committed instruction
system.cpu1.commit.op_class_0::SimdSha256Hash            0      0.00%     62.41% # Class of committed instruction
system.cpu1.commit.op_class_0::SimdSha256Hash2            0      0.00%     62.41% # Class of committed instruction
system.cpu1.commit.op_class_0::SimdShaSigma2            0      0.00%     62.41% # Class of committed instruction
system.cpu1.commit.op_class_0::SimdShaSigma3            0      0.00%     62.41% # Class of committed instruction
system.cpu1.commit.op_class_0::SimdPredAlu            0      0.00%     62.41% # Class of committed instruction
system.cpu1.commit.op_class_0::MemRead       12371928     29.00%     91.41% # Class of committed instruction
system.cpu1.commit.op_class_0::MemWrite       3664769      8.59%    100.00% # Class of committed instruction
system.cpu1.commit.op_class_0::FloatMemRead            0      0.00%    100.00% # Class of committed instruction
system.cpu1.commit.op_class_0::FloatMemWrite           12      0.00%    100.00% # Class of committed instruction
system.cpu1.commit.op_class_0::IprAccess            0      0.00%    100.00% # Class of committed instruction
system.cpu1.commit.op_class_0::InstPrefetch            0      0.00%    100.00% # Class of committed instruction
system.cpu1.commit.op_class_0::total         42664322                       # Class of committed instruction
system.cpu1.commit.refs                      16036709                       # Number of memory references committed
system.cpu1.commit.swp_count                        0                       # Number of s/w prefetches committed
system.cpu1.commit.vec_insts                        0                       # Number of committed Vector instructions.
system.cpu1.committedInsts                   41844492                       # Number of Instructions Simulated
system.cpu1.committedOps                     42664322                       # Number of Ops (including micro ops) Simulated
system.cpu1.cpi                              5.698597                       # CPI: Cycles Per Instruction
system.cpu1.cpi_total                        5.698597                       # CPI: Total CPI of All Threads
system.cpu1.decode.BlockedCycles            176888993                       # Number of cycles decode is blocked
system.cpu1.decode.BranchMispred               880033                       # Number of times decode detected a branch misprediction
system.cpu1.decode.BranchResolved            10361708                       # Number of times decode resolved a branch
system.cpu1.decode.DecodedInsts              81986188                       # Number of instructions handled by decode
system.cpu1.decode.IdleCycles                16587095                       # Number of cycles decode is idle
system.cpu1.decode.RunCycles                 39867266                       # Number of cycles decode is running
system.cpu1.decode.SquashCycles               2171855                       # Number of cycles decode is squashing
system.cpu1.decode.SquashedInsts               726890                       # Number of squashed instructions handled by decode
system.cpu1.decode.UnblockCycles              2371033                       # Number of cycles decode is unblocking
system.cpu1.dtb.accesses                            0                       # DTB accesses
system.cpu1.dtb.hits                                0                       # DTB hits
system.cpu1.dtb.misses                              0                       # DTB misses
system.cpu1.dtb.read_accesses                       0                       # DTB read accesses
system.cpu1.dtb.read_hits                           0                       # DTB read hits
system.cpu1.dtb.read_misses                         0                       # DTB read misses
system.cpu1.dtb.write_accesses                      0                       # DTB write accesses
system.cpu1.dtb.write_hits                          0                       # DTB write hits
system.cpu1.dtb.write_misses                        0                       # DTB write misses
system.cpu1.fetch.Branches                   20543330                       # Number of branches that fetch encountered
system.cpu1.fetch.CacheLines                 12890936                       # Number of cache lines fetched
system.cpu1.fetch.Cycles                    220187149                       # Number of cycles fetch has run and was not squashing or blocked
system.cpu1.fetch.IcacheSquashes               468141                       # Number of outstanding Icache misses that were squashed
system.cpu1.fetch.IcacheWaitRetryStallCycles           22                       # Number of stall cycles due to full MSHR
system.cpu1.fetch.Insts                      92812787                       # Number of instructions fetch has processed
system.cpu1.fetch.MiscStallCycles                   4                       # Number of cycles fetch has spent waiting on interrupts, or bad addresses, or out of MSHRs
system.cpu1.fetch.SquashCycles                6095814                       # Number of cycles fetch has spent squashing
system.cpu1.fetch.branchRate                 0.086152                       # Number of branch fetches per cycle
system.cpu1.fetch.icacheStallCycles          14651160                       # Number of cycles fetch is stalled on an Icache miss
system.cpu1.fetch.predictedBranches          11528768                       # Number of branches that fetch has predicted taken
system.cpu1.fetch.rate                       0.389226                       # Number of inst fetches per cycle
system.cpu1.fetch.rateDist::samples         237886242                       # Number of instructions fetched each cycle (Total)
system.cpu1.fetch.rateDist::mean             0.402880                       # Number of instructions fetched each cycle (Total)
system.cpu1.fetch.rateDist::stdev            0.887802                       # Number of instructions fetched each cycle (Total)
system.cpu1.fetch.rateDist::underflows              0      0.00%      0.00% # Number of instructions fetched each cycle (Total)
system.cpu1.fetch.rateDist::0               180836919     76.02%     76.02% # Number of instructions fetched each cycle (Total)
system.cpu1.fetch.rateDist::1                33904257     14.25%     90.27% # Number of instructions fetched each cycle (Total)
system.cpu1.fetch.rateDist::2                14469697      6.08%     96.35% # Number of instructions fetched each cycle (Total)
system.cpu1.fetch.rateDist::3                 4653369      1.96%     98.31% # Number of instructions fetched each cycle (Total)
system.cpu1.fetch.rateDist::4                 1767449      0.74%     99.05% # Number of instructions fetched each cycle (Total)
system.cpu1.fetch.rateDist::5                 1621744      0.68%     99.73% # Number of instructions fetched each cycle (Total)
system.cpu1.fetch.rateDist::6                  600678      0.25%     99.99% # Number of instructions fetched each cycle (Total)
system.cpu1.fetch.rateDist::7                    3647      0.00%     99.99% # Number of instructions fetched each cycle (Total)
system.cpu1.fetch.rateDist::8                   28482      0.01%    100.00% # Number of instructions fetched each cycle (Total)
system.cpu1.fetch.rateDist::overflows               0      0.00%    100.00% # Number of instructions fetched each cycle (Total)
system.cpu1.fetch.rateDist::min_value               0                       # Number of instructions fetched each cycle (Total)
system.cpu1.fetch.rateDist::max_value               8                       # Number of instructions fetched each cycle (Total)
system.cpu1.fetch.rateDist::total           237886242                       # Number of instructions fetched each cycle (Total)
system.cpu1.fp_regfile_reads                       12                       # number of floating regfile reads
system.cpu1.idleCycles                         568640                       # Total number of cycles that the CPU has spent unscheduled due to idling
system.cpu1.iew.branchMispredicts             2210364                       # Number of branch mispredicts detected at execute
system.cpu1.iew.exec_branches                13416780                       # Number of branches executed
system.cpu1.iew.exec_nop                            0                       # number of nop insts executed
system.cpu1.iew.exec_rate                    0.220107                       # Inst execution rate
system.cpu1.iew.exec_refs                    18200697                       # number of memory reference insts executed
system.cpu1.iew.exec_stores                   5268209                       # Number of stores executed
system.cpu1.iew.exec_swp                            0                       # number of swp insts executed
system.cpu1.iew.iewBlockCycles              154269192                       # Number of cycles IEW is blocking
system.cpu1.iew.iewDispLoadInsts             19946463                       # Number of dispatched load instructions
system.cpu1.iew.iewDispNonSpecInsts           2031551                       # Number of dispatched non-speculative instructions
system.cpu1.iew.iewDispSquashedInsts          1413776                       # Number of squashed instructions skipped by dispatch
system.cpu1.iew.iewDispStoreInsts             8220266                       # Number of dispatched store instructions
system.cpu1.iew.iewDispatchedInsts           72768455                       # Number of instructions dispatched to IQ
system.cpu1.iew.iewExecLoadInsts             12932488                       # Number of load instructions executed
system.cpu1.iew.iewExecSquashedInsts          1768370                       # Number of squashed instructions skipped in execute
system.cpu1.iew.iewExecutedInsts             52485481                       # Number of executed instructions
system.cpu1.iew.iewIQFullEvents                830591                       # Number of times the IQ has become full, causing a stall
system.cpu1.iew.iewIdleCycles                       0                       # Number of cycles IEW is idle
system.cpu1.iew.iewLSQFullEvents               748681                       # Number of times the LSQ has become full, causing a stall
system.cpu1.iew.iewSquashCycles               2171855                       # Number of cycles IEW is squashing
system.cpu1.iew.iewUnblockCycles              2274634                       # Number of cycles IEW is unblocking
system.cpu1.iew.lsq.thread0.blockedLoads            0                       # Number of blocked loads due to partial load-store forwarding
system.cpu1.iew.lsq.thread0.cacheBlocked        38969                       # Number of times an access to memory failed due to the cache being blocked
system.cpu1.iew.lsq.thread0.forwLoads          216667                       # Number of loads that had data forwarded from stores
system.cpu1.iew.lsq.thread0.ignoredResponses        12772                       # Number of memory responses ignored because the instruction is squashed
system.cpu1.iew.lsq.thread0.invAddrLoads            0                       # Number of loads ignored due to an invalid address
system.cpu1.iew.lsq.thread0.invAddrSwpfs            0                       # Number of software prefetches ignored due to an invalid address
system.cpu1.iew.lsq.thread0.memOrderViolation         1989                       # Number of memory ordering violations
system.cpu1.iew.lsq.thread0.rescheduledLoads         2362                       # Number of loads that were rescheduled
system.cpu1.iew.lsq.thread0.squashedLoads      8394165                       # Number of loads squashed
system.cpu1.iew.lsq.thread0.squashedStores      3735855                       # Number of stores squashed
system.cpu1.iew.memOrderViolationEvents          1989                       # Number of memory order violations
system.cpu1.iew.predictedNotTakenIncorrect       621725                       # Number of branches that were predicted not taken incorrectly
system.cpu1.iew.predictedTakenIncorrect       1588639                       # Number of branches that were predicted taken incorrectly
system.cpu1.iew.wb_consumers                 25427894                       # num instructions consuming a value
system.cpu1.iew.wb_count                     51591620                       # cumulative count of insts written-back
system.cpu1.iew.wb_fanout                    0.777637                       # average fanout of values written-back
system.cpu1.iew.wb_producers                 19773676                       # num instructions producing a value
system.cpu1.iew.wb_rate                      0.216358                       # insts written-back per cycle
system.cpu1.iew.wb_sent                      51618297                       # cumulative count of insts sent to commit
system.cpu1.int_regfile_reads                67553101                       # number of integer regfile reads
system.cpu1.int_regfile_writes               32303069                       # number of integer regfile writes
system.cpu1.ipc                              0.175482                       # IPC: Instructions Per Cycle
system.cpu1.ipc_total                        0.175482                       # IPC: Total IPC of All Threads
system.cpu1.iq.FU_type_0::No_OpClass          1639552      3.02%      3.02% # Type of FU issued
system.cpu1.iq.FU_type_0::IntAlu             33902252     62.49%     65.51% # Type of FU issued
system.cpu1.iq.FU_type_0::IntMult                  51      0.00%     65.51% # Type of FU issued
system.cpu1.iq.FU_type_0::IntDiv                   86      0.00%     65.51% # Type of FU issued
system.cpu1.iq.FU_type_0::FloatAdd                  0      0.00%     65.51% # Type of FU issued
system.cpu1.iq.FU_type_0::FloatCmp                  0      0.00%     65.51% # Type of FU issued
system.cpu1.iq.FU_type_0::FloatCvt                  0      0.00%     65.51% # Type of FU issued
system.cpu1.iq.FU_type_0::FloatMult                 0      0.00%     65.51% # Type of FU issued
system.cpu1.iq.FU_type_0::FloatMultAcc              0      0.00%     65.51% # Type of FU issued
system.cpu1.iq.FU_type_0::FloatDiv                  0      0.00%     65.51% # Type of FU issued
system.cpu1.iq.FU_type_0::FloatMisc                 0      0.00%     65.51% # Type of FU issued
system.cpu1.iq.FU_type_0::FloatSqrt                 0      0.00%     65.51% # Type of FU issued
system.cpu1.iq.FU_type_0::SimdAdd                   0      0.00%     65.51% # Type of FU issued
system.cpu1.iq.FU_type_0::SimdAddAcc                0      0.00%     65.51% # Type of FU issued
system.cpu1.iq.FU_type_0::SimdAlu                   0      0.00%     65.51% # Type of FU issued
system.cpu1.iq.FU_type_0::SimdCmp                   0      0.00%     65.51% # Type of FU issued
system.cpu1.iq.FU_type_0::SimdCvt                   0      0.00%     65.51% # Type of FU issued
system.cpu1.iq.FU_type_0::SimdMisc                  0      0.00%     65.51% # Type of FU issued
system.cpu1.iq.FU_type_0::SimdMult                  0      0.00%     65.51% # Type of FU issued
system.cpu1.iq.FU_type_0::SimdMultAcc               0      0.00%     65.51% # Type of FU issued
system.cpu1.iq.FU_type_0::SimdShift                 0      0.00%     65.51% # Type of FU issued
system.cpu1.iq.FU_type_0::SimdShiftAcc              0      0.00%     65.51% # Type of FU issued
system.cpu1.iq.FU_type_0::SimdDiv                   0      0.00%     65.51% # Type of FU issued
system.cpu1.iq.FU_type_0::SimdSqrt                  0      0.00%     65.51% # Type of FU issued
system.cpu1.iq.FU_type_0::SimdFloatAdd              0      0.00%     65.51% # Type of FU issued
system.cpu1.iq.FU_type_0::SimdFloatAlu              0      0.00%     65.51% # Type of FU issued
system.cpu1.iq.FU_type_0::SimdFloatCmp              0      0.00%     65.51% # Type of FU issued
system.cpu1.iq.FU_type_0::SimdFloatCvt              0      0.00%     65.51% # Type of FU issued
system.cpu1.iq.FU_type_0::SimdFloatDiv              0      0.00%     65.51% # Type of FU issued
system.cpu1.iq.FU_type_0::SimdFloatMisc             0      0.00%     65.51% # Type of FU issued
system.cpu1.iq.FU_type_0::SimdFloatMult             0      0.00%     65.51% # Type of FU issued
system.cpu1.iq.FU_type_0::SimdFloatMultAcc            0      0.00%     65.51% # Type of FU issued
system.cpu1.iq.FU_type_0::SimdFloatSqrt             0      0.00%     65.51% # Type of FU issued
system.cpu1.iq.FU_type_0::SimdReduceAdd             0      0.00%     65.51% # Type of FU issued
system.cpu1.iq.FU_type_0::SimdReduceAlu             0      0.00%     65.51% # Type of FU issued
system.cpu1.iq.FU_type_0::SimdReduceCmp             0      0.00%     65.51% # Type of FU issued
system.cpu1.iq.FU_type_0::SimdFloatReduceAdd            0      0.00%     65.51% # Type of FU issued
system.cpu1.iq.FU_type_0::SimdFloatReduceCmp            0      0.00%     65.51% # Type of FU issued
system.cpu1.iq.FU_type_0::SimdAes                   0      0.00%     65.51% # Type of FU issued
system.cpu1.iq.FU_type_0::SimdAesMix                0      0.00%     65.51% # Type of FU issued
system.cpu1.iq.FU_type_0::SimdSha1Hash              0      0.00%     65.51% # Type of FU issued
system.cpu1.iq.FU_type_0::SimdSha1Hash2             0      0.00%     65.51% # Type of FU issued
system.cpu1.iq.FU_type_0::SimdSha256Hash            0      0.00%     65.51% # Type of FU issued
system.cpu1.iq.FU_type_0::SimdSha256Hash2            0      0.00%     65.51% # Type of FU issued
system.cpu1.iq.FU_type_0::SimdShaSigma2             0      0.00%     65.51% # Type of FU issued
system.cpu1.iq.FU_type_0::SimdShaSigma3             0      0.00%     65.51% # Type of FU issued
system.cpu1.iq.FU_type_0::SimdPredAlu               0      0.00%     65.51% # Type of FU issued
system.cpu1.iq.FU_type_0::MemRead            14105648     26.00%     91.51% # Type of FU issued
system.cpu1.iq.FU_type_0::MemWrite            4606250      8.49%    100.00% # Type of FU issued
system.cpu1.iq.FU_type_0::FloatMemRead              0      0.00%    100.00% # Type of FU issued
system.cpu1.iq.FU_type_0::FloatMemWrite            12      0.00%    100.00% # Type of FU issued
system.cpu1.iq.FU_type_0::IprAccess                 0      0.00%    100.00% # Type of FU issued
system.cpu1.iq.FU_type_0::InstPrefetch              0      0.00%    100.00% # Type of FU issued
system.cpu1.iq.FU_type_0::total              54253851                       # Type of FU issued
system.cpu1.iq.fp_alu_accesses                     14                       # Number of floating point alu accesses
system.cpu1.iq.fp_inst_queue_reads                 26                       # Number of floating instruction queue reads
system.cpu1.iq.fp_inst_queue_wakeup_accesses           12                       # Number of floating instruction queue wakeup accesses
system.cpu1.iq.fp_inst_queue_writes                12                       # Number of floating instruction queue writes
system.cpu1.iq.fu_busy_cnt                     920019                       # FU busy when requested
system.cpu1.iq.fu_busy_rate                  0.016958                       # FU busy rate (busy events/executed inst)
system.cpu1.iq.fu_full::No_OpClass                  0      0.00%      0.00% # attempts to use FU when none available
system.cpu1.iq.fu_full::IntAlu                 144937     15.75%     15.75% # attempts to use FU when none available
system.cpu1.iq.fu_full::IntMult                     0      0.00%     15.75% # attempts to use FU when none available
system.cpu1.iq.fu_full::IntDiv                      0      0.00%     15.75% # attempts to use FU when none available
system.cpu1.iq.fu_full::FloatAdd                    0      0.00%     15.75% # attempts to use FU when none available
system.cpu1.iq.fu_full::FloatCmp                    0      0.00%     15.75% # attempts to use FU when none available
system.cpu1.iq.fu_full::FloatCvt                    0      0.00%     15.75% # attempts to use FU when none available
system.cpu1.iq.fu_full::FloatMult                   0      0.00%     15.75% # attempts to use FU when none available
system.cpu1.iq.fu_full::FloatMultAcc                0      0.00%     15.75% # attempts to use FU when none available
system.cpu1.iq.fu_full::FloatDiv                    0      0.00%     15.75% # attempts to use FU when none available
system.cpu1.iq.fu_full::FloatMisc                   0      0.00%     15.75% # attempts to use FU when none available
system.cpu1.iq.fu_full::FloatSqrt                   0      0.00%     15.75% # attempts to use FU when none available
system.cpu1.iq.fu_full::SimdAdd                     0      0.00%     15.75% # attempts to use FU when none available
system.cpu1.iq.fu_full::SimdAddAcc                  0      0.00%     15.75% # attempts to use FU when none available
system.cpu1.iq.fu_full::SimdAlu                     0      0.00%     15.75% # attempts to use FU when none available
system.cpu1.iq.fu_full::SimdCmp                     0      0.00%     15.75% # attempts to use FU when none available
system.cpu1.iq.fu_full::SimdCvt                     0      0.00%     15.75% # attempts to use FU when none available
system.cpu1.iq.fu_full::SimdMisc                    0      0.00%     15.75% # attempts to use FU when none available
system.cpu1.iq.fu_full::SimdMult                    0      0.00%     15.75% # attempts to use FU when none available
system.cpu1.iq.fu_full::SimdMultAcc                 0      0.00%     15.75% # attempts to use FU when none available
system.cpu1.iq.fu_full::SimdShift                   0      0.00%     15.75% # attempts to use FU when none available
system.cpu1.iq.fu_full::SimdShiftAcc                0      0.00%     15.75% # attempts to use FU when none available
system.cpu1.iq.fu_full::SimdDiv                     0      0.00%     15.75% # attempts to use FU when none available
system.cpu1.iq.fu_full::SimdSqrt                    0      0.00%     15.75% # attempts to use FU when none available
system.cpu1.iq.fu_full::SimdFloatAdd                0      0.00%     15.75% # attempts to use FU when none available
system.cpu1.iq.fu_full::SimdFloatAlu                0      0.00%     15.75% # attempts to use FU when none available
system.cpu1.iq.fu_full::SimdFloatCmp                0      0.00%     15.75% # attempts to use FU when none available
system.cpu1.iq.fu_full::SimdFloatCvt                0      0.00%     15.75% # attempts to use FU when none available
system.cpu1.iq.fu_full::SimdFloatDiv                0      0.00%     15.75% # attempts to use FU when none available
system.cpu1.iq.fu_full::SimdFloatMisc               0      0.00%     15.75% # attempts to use FU when none available
system.cpu1.iq.fu_full::SimdFloatMult               0      0.00%     15.75% # attempts to use FU when none available
system.cpu1.iq.fu_full::SimdFloatMultAcc            0      0.00%     15.75% # attempts to use FU when none available
system.cpu1.iq.fu_full::SimdFloatSqrt               0      0.00%     15.75% # attempts to use FU when none available
system.cpu1.iq.fu_full::SimdReduceAdd               0      0.00%     15.75% # attempts to use FU when none available
system.cpu1.iq.fu_full::SimdReduceAlu               0      0.00%     15.75% # attempts to use FU when none available
system.cpu1.iq.fu_full::SimdReduceCmp               0      0.00%     15.75% # attempts to use FU when none available
system.cpu1.iq.fu_full::SimdFloatReduceAdd            0      0.00%     15.75% # attempts to use FU when none available
system.cpu1.iq.fu_full::SimdFloatReduceCmp            0      0.00%     15.75% # attempts to use FU when none available
system.cpu1.iq.fu_full::SimdAes                     0      0.00%     15.75% # attempts to use FU when none available
system.cpu1.iq.fu_full::SimdAesMix                  0      0.00%     15.75% # attempts to use FU when none available
system.cpu1.iq.fu_full::SimdSha1Hash                0      0.00%     15.75% # attempts to use FU when none available
system.cpu1.iq.fu_full::SimdSha1Hash2               0      0.00%     15.75% # attempts to use FU when none available
system.cpu1.iq.fu_full::SimdSha256Hash              0      0.00%     15.75% # attempts to use FU when none available
system.cpu1.iq.fu_full::SimdSha256Hash2             0      0.00%     15.75% # attempts to use FU when none available
system.cpu1.iq.fu_full::SimdShaSigma2               0      0.00%     15.75% # attempts to use FU when none available
system.cpu1.iq.fu_full::SimdShaSigma3               0      0.00%     15.75% # attempts to use FU when none available
system.cpu1.iq.fu_full::SimdPredAlu                 0      0.00%     15.75% # attempts to use FU when none available
system.cpu1.iq.fu_full::MemRead                677763     73.67%     89.42% # attempts to use FU when none available
system.cpu1.iq.fu_full::MemWrite                97317     10.58%    100.00% # attempts to use FU when none available
[...]
system.cpu1.dcache.WriteReq_mshr_misses::total        21000                       # number of WriteReq MSHR misses
system.cpu1.dcache.WriteReq_mshr_miss_latency::.cpu1.data   1896408859                       # number of WriteReq MSHR miss cycles
system.cpu1.dcache.WriteReq_mshr_miss_latency::total   1896408859                       # number of WriteReq MSHR miss cycles
system.cpu1.dcache.WriteReq_mshr_miss_rate::.cpu1.data     0.033315                       # mshr miss rate for WriteReq accesses
system.cpu1.dcache.WriteReq_mshr_miss_rate::total     0.033315                       # mshr miss rate for WriteReq accesses
system.cpu1.dcache.WriteReq_avg_mshr_miss_latency::.cpu1.data 90305.183762                       # average WriteReq mshr miss latency
system.cpu1.dcache.WriteReq_avg_mshr_miss_latency::total 90305.183762                       # average WriteReq mshr miss latency
system.cpu1.dcache.LoadLockedReq_hits::.cpu1.data          973                       # number of LoadLockedReq hits
system.cpu1.dcache.LoadLockedReq_hits::total          973                       # number of LoadLockedReq hits
system.cpu1.dcache.LoadLockedReq_misses::.cpu1.data          333                       # number of LoadLockedReq misses
system.cpu1.dcache.LoadLockedReq_misses::total          333                       # number of LoadLockedReq misses
system.cpu1.dcache.LoadLockedReq_miss_latency::.cpu1.data     10305500                       # number of LoadLockedReq miss cycles
system.cpu1.dcache.LoadLockedReq_miss_latency::total     10305500                       # number of LoadLockedReq miss cycles
system.cpu1.dcache.LoadLockedReq_accesses::.cpu1.data         1306                       # number of LoadLockedReq accesses(hits+misses)
system.cpu1.dcache.LoadLockedReq_accesses::total         1306                       # number of LoadLockedReq accesses(hits+misses)
system.cpu1.dcache.LoadLockedReq_miss_rate::.cpu1.data     0.254977                       # miss rate for LoadLockedReq accesses
system.cpu1.dcache.LoadLockedReq_miss_rate::total     0.254977                       # miss rate for LoadLockedReq accesses
system.cpu1.dcache.LoadLockedReq_avg_miss_latency::.cpu1.data 30947.447447                       # average LoadLockedReq miss latency
system.cpu1.dcache.LoadLockedReq_avg_miss_latency::total 30947.447447                       # average LoadLockedReq miss latency
system.cpu1.dcache.LoadLockedReq_mshr_hits::.cpu1.data          157                       # number of LoadLockedReq MSHR hits
system.cpu1.dcache.LoadLockedReq_mshr_hits::total          157                       # number of LoadLockedReq MSHR hits
system.cpu1.dcache.LoadLockedReq_mshr_misses::.cpu1.data          176                       # number of LoadLockedReq MSHR misses
system.cpu1.dcache.LoadLockedReq_mshr_misses::total          176                       # number of LoadLockedReq MSHR misses
system.cpu1.dcache.LoadLockedReq_mshr_miss_latency::.cpu1.data      1174500                       # number of LoadLockedReq MSHR miss cycles
system.cpu1.dcache.LoadLockedReq_mshr_miss_latency::total      1174500                       # number of LoadLockedReq MSHR miss cycles
system.cpu1.dcache.LoadLockedReq_mshr_miss_rate::.cpu1.data     0.134763                       # mshr miss rate for LoadLockedReq accesses
system.cpu1.dcache.LoadLockedReq_mshr_miss_rate::total     0.134763                       # mshr miss rate for LoadLockedReq accesses
system.cpu1.dcache.LoadLockedReq_avg_mshr_miss_latency::.cpu1.data  6673.295455                       # average LoadLockedReq mshr miss latency
system.cpu1.dcache.LoadLockedReq_avg_mshr_miss_latency::total  6673.295455                       # average LoadLockedReq mshr miss latency
system.cpu1.dcache.StoreCondReq_hits::.cpu1.data          523                       # number of StoreCondReq hits
system.cpu1.dcache.StoreCondReq_hits::total          523                       # number of StoreCondReq hits
system.cpu1.dcache.StoreCondReq_misses::.cpu1.data          441                       # number of StoreCondReq misses
system.cpu1.dcache.StoreCondReq_misses::total          441                       # number of StoreCondReq misses
system.cpu1.dcache.StoreCondReq_miss_latency::.cpu1.data      2576500                       # number of StoreCondReq miss cycles
system.cpu1.dcache.StoreCondReq_miss_latency::total      2576500                       # number of StoreCondReq miss cycles
system.cpu1.dcache.StoreCondReq_accesses::.cpu1.data          964                       # number of StoreCondReq accesses(hits+misses)
system.cpu1.dcache.StoreCondReq_accesses::total          964                       # number of StoreCondReq accesses(hits+misses)
system.cpu1.dcache.StoreCondReq_miss_rate::.cpu1.data     0.457469                       # miss rate for StoreCondReq accesses
system.cpu1.dcache.StoreCondReq_miss_rate::total     0.457469                       # miss rate for StoreCondReq accesses
system.cpu1.dcache.StoreCondReq_avg_miss_latency::.cpu1.data  5842.403628                       # average StoreCondReq miss latency
system.cpu1.dcache.StoreCondReq_avg_miss_latency::total  5842.403628                       # average StoreCondReq miss latency
system.cpu1.dcache.StoreCondReq_mshr_misses::.cpu1.data          439                       # number of StoreCondReq MSHR misses
system.cpu1.dcache.StoreCondReq_mshr_misses::total          439                       # number of StoreCondReq MSHR misses
system.cpu1.dcache.StoreCondReq_mshr_miss_latency::.cpu1.data      2194500                       # number of StoreCondReq MSHR miss cycles
system.cpu1.dcache.StoreCondReq_mshr_miss_latency::total      2194500                       # number of StoreCondReq MSHR miss cycles
system.cpu1.dcache.StoreCondReq_mshr_miss_rate::.cpu1.data     0.455394                       # mshr miss rate for StoreCondReq accesses
system.cpu1.dcache.StoreCondReq_mshr_miss_rate::total     0.455394                       # mshr miss rate for StoreCondReq accesses
system.cpu1.dcache.StoreCondReq_avg_mshr_miss_latency::.cpu1.data  4998.861048                       # average StoreCondReq mshr miss latency
system.cpu1.dcache.StoreCondReq_avg_mshr_miss_latency::total  4998.861048                       # average StoreCondReq mshr miss latency
system.cpu1.dcache.StoreCondFailReq_miss_latency::.cpu1.data       944000                       # number of StoreCondFailReq miss cycles
system.cpu1.dcache.StoreCondFailReq_miss_latency::total       944000                       # number of StoreCondFailReq miss cycles
system.cpu1.dcache.StoreCondFailReq_avg_miss_latency::.cpu1.data          inf                       # average StoreCondFailReq miss latency
system.cpu1.dcache.StoreCondFailReq_avg_miss_latency::total          inf                       # average StoreCondFailReq miss latency
system.cpu1.dcache.StoreCondFailReq_mshr_miss_latency::.cpu1.data       887000                       # number of StoreCondFailReq MSHR miss cycles
system.cpu1.dcache.StoreCondFailReq_mshr_miss_latency::total       887000                       # number of StoreCondFailReq MSHR miss cycles
system.cpu1.dcache.StoreCondFailReq_avg_mshr_miss_latency::.cpu1.data          inf                       # average StoreCondFailReq mshr miss latency
system.cpu1.dcache.StoreCondFailReq_avg_mshr_miss_latency::total          inf                       # average StoreCondFailReq mshr miss latency
system.cpu1.dcache.SwapReq_hits::.cpu1.data          243                       # number of SwapReq hits
system.cpu1.dcache.SwapReq_hits::total            243                       # number of SwapReq hits
system.cpu1.dcache.SwapReq_misses::.cpu1.data          611                       # number of SwapReq misses
system.cpu1.dcache.SwapReq_misses::total          611                       # number of SwapReq misses
system.cpu1.dcache.SwapReq_miss_latency::.cpu1.data      2924500                       # number of SwapReq miss cycles
system.cpu1.dcache.SwapReq_miss_latency::total      2924500                       # number of SwapReq miss cycles
system.cpu1.dcache.SwapReq_accesses::.cpu1.data          854                       # number of SwapReq accesses(hits+misses)
system.cpu1.dcache.SwapReq_accesses::total          854                       # number of SwapReq accesses(hits+misses)
system.cpu1.dcache.SwapReq_miss_rate::.cpu1.data     0.715457                       # miss rate for SwapReq accesses
system.cpu1.dcache.SwapReq_miss_rate::total     0.715457                       # miss rate for SwapReq accesses
system.cpu1.dcache.SwapReq_avg_miss_latency::.cpu1.data  4786.415712                       # average SwapReq miss latency
system.cpu1.dcache.SwapReq_avg_miss_latency::total  4786.415712                       # average SwapReq miss latency
system.cpu1.dcache.SwapReq_mshr_misses::.cpu1.data          611                       # number of SwapReq MSHR misses
system.cpu1.dcache.SwapReq_mshr_misses::total          611                       # number of SwapReq MSHR misses
system.cpu1.dcache.SwapReq_mshr_miss_latency::.cpu1.data      2313500                       # number of SwapReq MSHR miss cycles
system.cpu1.dcache.SwapReq_mshr_miss_latency::total      2313500                       # number of SwapReq MSHR miss cycles
system.cpu1.dcache.SwapReq_mshr_miss_rate::.cpu1.data     0.715457                       # mshr miss rate for SwapReq accesses
system.cpu1.dcache.SwapReq_mshr_miss_rate::total     0.715457                       # mshr miss rate for SwapReq accesses
system.cpu1.dcache.SwapReq_avg_mshr_miss_latency::.cpu1.data  3786.415712                       # average SwapReq mshr miss latency
system.cpu1.dcache.SwapReq_avg_mshr_miss_latency::total  3786.415712                       # average SwapReq mshr miss latency
system.cpu1.dcache.tags.pwrStateResidencyTicks::UNDEFINED 538311418000                       # Cumulative time (in ticks) in various power states
system.cpu1.dcache.tags.tagsinuse           31.940082                       # Cycle average of tags in use
system.cpu1.dcache.tags.total_refs           53122528                       # Total number of references to valid blocks.
system.cpu1.dcache.tags.sampled_refs         14402458                       # Sample count of references to valid blocks.
system.cpu1.dcache.tags.avg_refs             3.688435                       # Average number of references to valid blocks.
system.cpu1.dcache.tags.warmup_cycle                0                       # Cycle when the warmup percentage was hit.
system.cpu1.dcache.tags.occ_blocks::.cpu1.data    31.940082                       # Average occupied blocks per requestor
system.cpu1.dcache.tags.occ_percent::.cpu1.data     0.998128                       # Average percentage of cache occupancy
system.cpu1.dcache.tags.occ_percent::total     0.998128                       # Average percentage of cache occupancy
system.cpu1.dcache.tags.occ_task_id_blocks::1024           28                       # Occupied blocks per task id
system.cpu1.dcache.tags.age_task_id_blocks_1024::1           28                       # Occupied blocks per task id
system.cpu1.dcache.tags.occ_task_id_percent::1024     0.875000                       # Percentage of cache occupancy per task id
system.cpu1.dcache.tags.tag_accesses        133016503                       # Number of tag accesses
system.cpu1.dcache.tags.data_accesses       133016503                       # Number of data accesses
system.cpu_clk_domain.clock                       500                       # Clock period in ticks
system.tol2bus.pwrStateResidencyTicks::UNDEFINED 538311418000                       # Cumulative time (in ticks) in various power states
system.tol2bus.trans_dist::ReadResp          48643311                       # Transaction distribution
system.tol2bus.trans_dist::ReadRespWithInvalidate            4                       # Transaction distribution
system.tol2bus.trans_dist::WritebackDirty      1712533                       # Transaction distribution
system.tol2bus.trans_dist::WritebackClean     47764262                       # Transaction distribution
system.tol2bus.trans_dist::CleanEvict        81229969                       # Transaction distribution
system.tol2bus.trans_dist::UpgradeReq           27100                       # Transaction distribution
system.tol2bus.trans_dist::SCUpgradeReq          1798                       # Transaction distribution
system.tol2bus.trans_dist::UpgradeResp          28898                       # Transaction distribution
system.tol2bus.trans_dist::SCUpgradeFailReq          158                       # Transaction distribution
system.tol2bus.trans_dist::UpgradeFailResp          158                       # Transaction distribution
system.tol2bus.trans_dist::ReadExReq            65545                       # Transaction distribution
system.tol2bus.trans_dist::ReadExResp           65545                       # Transaction distribution
system.tol2bus.trans_dist::ReadCleanReq         30714                       # Transaction distribution
system.tol2bus.trans_dist::ReadSharedReq     48612602                       # Transaction distribution
system.tol2bus.pkt_count_system.cpu0.icache.mem_side::system.l2.cpu_side        54952                       # Packet count per connected master and slave (bytes)
system.tol2bus.pkt_count_system.cpu0.dcache.mem_side::system.l2.cpu_side     59838253                       # Packet count per connected master and slave (bytes)
system.tol2bus.pkt_count_system.cpu1.icache.mem_side::system.l2.cpu_side        12648                       # Packet count per connected master and slave (bytes)
system.tol2bus.pkt_count_system.cpu1.dcache.mem_side::system.l2.cpu_side     43200693                       # Packet count per connected master and slave (bytes)
system.tol2bus.pkt_count_system.cpu2.icache.mem_side::system.l2.cpu_side        12150                       # Packet count per connected master and slave (bytes)
system.tol2bus.pkt_count_system.cpu2.dcache.mem_side::system.l2.cpu_side     27662379                       # Packet count per connected master and slave (bytes)
system.tol2bus.pkt_count_system.cpu3.icache.mem_side::system.l2.cpu_side        12390                       # Packet count per connected master and slave (bytes)
system.tol2bus.pkt_count_system.cpu3.dcache.mem_side::system.l2.cpu_side     15315935                       # Packet count per connected master and slave (bytes)
system.tol2bus.pkt_count::total             146109400                       # Packet count per connected master and slave (bytes)
system.tol2bus.pkt_size_system.cpu0.icache.mem_side::system.l2.cpu_side      2344576                       # Cumulative packet size per connected master and slave (bytes)
system.tol2bus.pkt_size_system.cpu0.dcache.mem_side::system.l2.cpu_side   2552086400                       # Cumulative packet size per connected master and slave (bytes)
system.tol2bus.pkt_size_system.cpu1.icache.mem_side::system.l2.cpu_side       539648                       # Cumulative packet size per connected master and slave (bytes)
system.tol2bus.pkt_size_system.cpu1.dcache.mem_side::system.l2.cpu_side   1842320576                       # Cumulative packet size per connected master and slave (bytes)
system.tol2bus.pkt_size_system.cpu2.icache.mem_side::system.l2.cpu_side       518400                       # Cumulative packet size per connected master and slave (bytes)
system.tol2bus.pkt_size_system.cpu2.dcache.mem_side::system.l2.cpu_side   1179387200                       # Cumulative packet size per connected master and slave (bytes)
system.tol2bus.pkt_size_system.cpu3.icache.mem_side::system.l2.cpu_side       528640                       # Cumulative packet size per connected master and slave (bytes)
system.tol2bus.pkt_size_system.cpu3.dcache.mem_side::system.l2.cpu_side    652695744                       # Cumulative packet size per connected master and slave (bytes)
system.tol2bus.pkt_size::total             6230421184                       # Cumulative packet size per connected master and slave (bytes)
system.tol2bus.snoops                        82073197                       # Total snoops (count)
system.tol2bus.snoopTraffic                  53470848                       # Total snoop traffic (bytes)
system.tol2bus.snoop_fanout::samples        130763069                       # Request fanout histogram
system.tol2bus.snoop_fanout::mean            0.348397                       # Request fanout histogram
system.tol2bus.snoop_fanout::stdev           0.542289                       # Request fanout histogram
system.tol2bus.snoop_fanout::underflows             0      0.00%      0.00% # Request fanout histogram
system.tol2bus.snoop_fanout::0               88692623     67.83%     67.83% # Request fanout histogram
system.tol2bus.snoop_fanout::1               39362905     30.10%     97.93% # Request fanout histogram
system.tol2bus.snoop_fanout::2                2045970      1.56%     99.49% # Request fanout histogram
system.tol2bus.snoop_fanout::3                 543703      0.42%     99.91% # Request fanout histogram
system.tol2bus.snoop_fanout::4                 117799      0.09%    100.00% # Request fanout histogram
system.tol2bus.snoop_fanout::5                     69      0.00%    100.00% # Request fanout histogram
system.tol2bus.snoop_fanout::6                      0      0.00%    100.00% # Request fanout histogram
system.tol2bus.snoop_fanout::7                      0      0.00%    100.00% # Request fanout histogram
system.tol2bus.snoop_fanout::8                      0      0.00%    100.00% # Request fanout histogram
system.tol2bus.snoop_fanout::overflows              0      0.00%    100.00% # Request fanout histogram
system.tol2bus.snoop_fanout::min_value              0                       # Request fanout histogram
system.tol2bus.snoop_fanout::max_value              5                       # Request fanout histogram
system.tol2bus.snoop_fanout::total          130763069                       # Request fanout histogram
system.tol2bus.reqLayer0.occupancy        97391495861                       # Layer occupancy (ticks)
system.tol2bus.reqLayer0.utilization             18.1                       # Layer utilization (%)
system.tol2bus.respLayer5.occupancy       13873591258                       # Layer occupancy (ticks)
system.tol2bus.respLayer5.utilization             2.6                       # Layer utilization (%)
system.tol2bus.respLayer4.occupancy           6363329                       # Layer occupancy (ticks)
system.tol2bus.respLayer4.utilization             0.0                       # Layer utilization (%)
system.tol2bus.respLayer7.occupancy        7686029367                       # Layer occupancy (ticks)
system.tol2bus.respLayer7.utilization             1.4                       # Layer utilization (%)
system.tol2bus.respLayer6.occupancy           6375544                       # Layer occupancy (ticks)
system.tol2bus.respLayer6.utilization             0.0                       # Layer utilization (%)
system.tol2bus.respLayer1.occupancy       29961509855                       # Layer occupancy (ticks)
system.tol2bus.respLayer1.utilization             5.6                       # Layer utilization (%)
system.tol2bus.respLayer0.occupancy          27511913                       # Layer occupancy (ticks)
system.tol2bus.respLayer0.utilization             0.0                       # Layer utilization (%)
system.tol2bus.respLayer3.occupancy       21649054721                       # Layer occupancy (ticks)
system.tol2bus.respLayer3.utilization             4.0                       # Layer utilization (%)
system.tol2bus.respLayer2.occupancy           6585356                       # Layer occupancy (ticks)
system.tol2bus.respLayer2.utilization             0.0                       # Layer utilization (%)

---------- End Simulation Statistics   ----------
