
---------- Begin Simulation Statistics ----------
final_tick                               1052649765000                       # Number of ticks from beginning of simulation (restored from checkpoints and never reset)
host_inst_rate                                  56479                       # Simulator instruction rate (inst/s)
host_mem_usage                                 702696                       # Number of bytes of host memory used
host_op_rate                                    56664                       # Simulator op (including micro ops) rate (op/s)
host_seconds                                 19578.41                       # Real time elapsed on the host
host_tick_rate                               53765855                       # Simulator tick rate (ticks/s)
sim_freq                                 1000000000000                       # Frequency of simulated ticks
sim_insts                                  1105765642                       # Number of instructions simulated
sim_ops                                    1109391014                       # Number of ops (including micro ops) simulated
sim_seconds                                  1.052650                       # Number of seconds simulated
sim_ticks                                1052649765000                       # Number of ticks simulated
system.cpu0.branchPred.BTBCorrect                   0                       # Number of correct BTB predictions (this stat may not work properly.
system.cpu0.branchPred.BTBHitPct            86.791372                       # BTB Hit Percentage
system.cpu0.branchPred.BTBHits              144356210                       # Number of BTB hits
system.cpu0.branchPred.BTBLookups           166325531                       # Number of BTB lookups
system.cpu0.branchPred.RASInCorrect                 0                       # Number of incorrect RAS predictions.
system.cpu0.branchPred.condIncorrect         14076617                       # Number of conditional branches incorrect
system.cpu0.branchPred.condPredicted        229042462                       # Number of conditional branches predicted
system.cpu0.branchPred.indirectHits          18450058                       # Number of indirect target hits.
system.cpu0.branchPred.indirectLookups       18698390                       # Number of indirect predictor lookups.
system.cpu0.branchPred.indirectMisses          248332                       # Number of indirect misses.
system.cpu0.branchPred.lookups              289840401                       # Number of BP lookups
system.cpu0.branchPred.usedRAS                      0                       # Number of times the RAS was used to get a target.
system.cpu0.branchPredindirectMispredicted      1864543                       # Number of mispredicted indirect branches.
system.cpu0.commit.amos                       1811474                       # Number of atomic instructions committed
system.cpu0.commit.branchMispredicts          9381456                       # The number of times a branch was mispredicted
system.cpu0.commit.branches                 260673475                       # Number of branches committed
system.cpu0.commit.bw_lim_events             29580409                       # number cycles where commit BW limit reached
system.cpu0.commit.commitNonSpecStalls        5441404                       # The number of times commit has been forced to stall to communicate backwards
system.cpu0.commit.commitSquashedInsts      100752102                       # The number of squashed insts skipped by commit
system.cpu0.commit.committedInsts          1050699742                       # Number of instructions committed
system.cpu0.commit.committedOps            1052513741                       # Number of ops (including micro ops) committed
system.cpu0.commit.committed_per_cycle::samples   1941230795                       # Number of insts commited each cycle
system.cpu0.commit.committed_per_cycle::mean     0.542189                       # Number of insts commited each cycle
system.cpu0.commit.committed_per_cycle::stdev     1.300515                       # Number of insts commited each cycle
system.cpu0.commit.committed_per_cycle::underflows            0      0.00%      0.00% # Number of insts commited each cycle
system.cpu0.commit.committed_per_cycle::0   1423249713     73.32%     73.32% # Number of insts commited each cycle
system.cpu0.commit.committed_per_cycle::1    316364689     16.30%     89.61% # Number of insts commited each cycle
system.cpu0.commit.committed_per_cycle::2     71513999      3.68%     93.30% # Number of insts commited each cycle
system.cpu0.commit.committed_per_cycle::3     67668577      3.49%     96.78% # Number of insts commited each cycle
system.cpu0.commit.committed_per_cycle::4     19893318      1.02%     97.81% # Number of insts commited each cycle
system.cpu0.commit.committed_per_cycle::5      7350949      0.38%     98.19% # Number of insts commited each cycle
system.cpu0.commit.committed_per_cycle::6      2119953      0.11%     98.30% # Number of insts commited each cycle
system.cpu0.commit.committed_per_cycle::7      3489188      0.18%     98.48% # Number of insts commited each cycle
system.cpu0.commit.committed_per_cycle::8     29580409      1.52%    100.00% # Number of insts commited each cycle
system.cpu0.commit.committed_per_cycle::overflows            0      0.00%    100.00% # Number of insts commited each cycle
system.cpu0.commit.committed_per_cycle::min_value            0                       # Number of insts commited each cycle
system.cpu0.commit.committed_per_cycle::max_value            8                       # Number of insts commited each cycle
system.cpu0.commit.committed_per_cycle::total   1941230795                       # Number of insts commited each cycle
system.cpu0.commit.fp_insts                        46                       # Number of committed floating point instructions.
system.cpu0.commit.function_calls            20856798                       # Number of function calls committed.
system.cpu0.commit.int_insts               1015892161                       # Number of committed integer instructions.
system.cpu0.commit.loads                    326211290                       # Number of loads committed
system.cpu0.commit.membars                    3625356                       # Number of memory barriers committed
system.cpu0.commit.op_class_0::No_OpClass      3625362      0.34%      0.34% # Class of committed instruction
system.cpu0.commit.op_class_0::IntAlu       583876947     55.47%     55.82% # Class of committed instruction
system.cpu0.commit.op_class_0::IntMult        8030359      0.76%     56.58% # Class of committed instruction
system.cpu0.commit.op_class_0::IntDiv         1811037      0.17%     56.75% # Class of committed instruction
system.cpu0.commit.op_class_0::FloatAdd             0      0.00%     56.75% # Class of committed instruction
system.cpu0.commit.op_class_0::FloatCmp             4      0.00%     56.75% # Class of committed instruction
system.cpu0.commit.op_class_0::FloatCvt            12      0.00%     56.75% # Class of committed instruction
system.cpu0.commit.op_class_0::FloatMult            0      0.00%     56.75% # Class of committed instruction
system.cpu0.commit.op_class_0::FloatMultAcc            0      0.00%     56.75% # Class of committed instruction
system.cpu0.commit.op_class_0::FloatDiv             2      0.00%     56.75% # Class of committed instruction
system.cpu0.commit.op_class_0::FloatMisc            4      0.00%     56.75% # Class of committed instruction
system.cpu0.commit.op_class_0::FloatSqrt            0      0.00%     56.75% # Class of committed instruction
system.cpu0.commit.op_class_0::SimdAdd              0      0.00%     56.75% # Class of committed instruction
system.cpu0.commit.op_class_0::SimdAddAcc            0      0.00%     56.75% # Class of committed instruction
system.cpu0.commit.op_class_0::SimdAlu              0      0.00%     56.75% # Class of committed instruction
system.cpu0.commit.op_class_0::SimdCmp              0      0.00%     56.75% # Class of committed instruction
system.cpu0.commit.op_class_0::SimdCvt              0      0.00%     56.75% # Class of committed instruction
system.cpu0.commit.op_class_0::SimdMisc             0      0.00%     56.75% # Class of committed instruction
system.cpu0.commit.op_class_0::SimdMult             0      0.00%     56.75% # Class of committed instruction
system.cpu0.commit.op_class_0::SimdMultAcc            0      0.00%     56.75% # Class of committed instruction
system.cpu0.commit.op_class_0::SimdShift            0      0.00%     56.75% # Class of committed instruction
system.cpu0.commit.op_class_0::SimdShiftAcc            0      0.00%     56.75% # Class of committed instruction
system.cpu0.commit.op_class_0::SimdDiv              0      0.00%     56.75% # Class of committed instruction
system.cpu0.commit.op_class_0::SimdSqrt             0      0.00%     56.75% # Class of committed instruction
system.cpu0.commit.op_class_0::SimdFloatAdd            0      0.00%     56.75% # Class of committed instruction
system.cpu0.commit.op_class_0::SimdFloatAlu            0      0.00%     56.75% # Class of committed instruction
system.cpu0.commit.op_class_0::SimdFloatCmp            0      0.00%     56.75% # Class of committed instruction
system.cpu0.commit.op_class_0::SimdFloatCvt            0      0.00%     56.75% # Class of committed instruction
system.cpu0.commit.op_class_0::SimdFloatDiv            0      0.00%     56.75% # Class of committed instruction
system.cpu0.commit.op_class_0::SimdFloatMisc            0      0.00%     56.75% # Class of committed instruction
system.cpu0.commit.op_class_0::SimdFloatMult            0      0.00%     56.75% # Class of committed instruction
system.cpu0.commit.op_class_0::SimdFloatMultAcc            0      0.00%     56.75% # Class of committed instruction
system.cpu0.commit.op_class_0::SimdFloatSqrt            0      0.00%     56.75% # Class of committed instruction
system.cpu0.commit.op_class_0::SimdReduceAdd            0      0.00%     56.75% # Class of committed instruction
system.cpu0.commit.op_class_0::SimdReduceAlu            0      0.00%     56.75% # Class of committed instruction
system.cpu0.commit.op_class_0::SimdReduceCmp            0      0.00%     56.75% # Class of committed instruction
system.cpu0.commit.op_class_0::SimdFloatReduceAdd            0      0.00%     56.75% # Class of committed instruction
system.cpu0.commit.op_class_0::SimdFloatReduceCmp            0      0.00%     56.75% # Class of committed instruction
system.cpu0.commit.op_class_0::SimdAes              0      0.00%     56.75% # Class of committed instruction
system.cpu0.commit.op_class_0::SimdAesMix            0      0.00%     56.75% # Class of committed instruction
system.cpu0.commit.op_class_0::SimdSha1Hash            0      0.00%     56.75% # Class of committed instruction
system.cpu0.commit.op_class_0::SimdSha1Hash2            0      0.00%     56.75% # Class of committed instruction
system.cpu0.commit.op_class_0::SimdSha256Hash            0      0.00%     56.75% # Class of committed instruction
system.cpu0.commit.op_class_0::SimdSha256Hash2            0      0.00%     56.75% # Class of committed instruction
system.cpu0.commit.op_class_0::SimdShaSigma2            0      0.00%     56.75% # Class of committed instruction
system.cpu0.commit.op_class_0::SimdShaSigma3            0      0.00%     56.75% # Class of committed instruction
system.cpu0.commit.op_class_0::SimdPredAlu            0      0.00%     56.75% # Class of committed instruction
system.cpu0.commit.op_class_0::MemRead      328022756     31.17%     87.92% # Class of committed instruction
system.cpu0.commit.op_class_0::MemWrite     127147234     12.08%    100.00% # Class of committed instruction
system.cpu0.commit.op_class_0::FloatMemRead            8      0.00%    100.00% # Class of committed instruction
system.cpu0.commit.op_class_0::FloatMemWrite           16      0.00%    100.00% # Class of committed instruction
system.cpu0.commit.op_class_0::IprAccess            0      0.00%    100.00% # Class of committed instruction
system.cpu0.commit.op_class_0::InstPrefetch            0      0.00%    100.00% # Class of committed instruction
system.cpu0.commit.op_class_0::total       1052513741                       # Class of committed instruction
system.cpu0.commit.refs                     455170014                       # Number of memory references committed
system.cpu0.commit.swp_count                        0                       # Number of s/w prefetches committed
system.cpu0.commit.vec_insts                        0                       # Number of committed Vector instructions.
system.cpu0.committedInsts                 1050699742                       # Number of Instructions Simulated
system.cpu0.committedOps                   1052513741                       # Number of Ops (including micro ops) Simulated
system.cpu0.cpi                              2.000813                       # CPI: Cycles Per Instruction
system.cpu0.cpi_total                        2.000813                       # CPI: Total CPI of All Threads
system.cpu0.decode.BlockedCycles            326251219                       # Number of cycles decode is blocked
system.cpu0.decode.BranchMispred              4703189                       # Number of times decode detected a branch misprediction
system.cpu0.decode.BranchResolved           142401939                       # Number of times decode resolved a branch
system.cpu0.decode.DecodedInsts            1182605536                       # Number of instructions handled by decode
system.cpu0.decode.IdleCycles               807764397                       # Number of cycles decode is idle
system.cpu0.decode.RunCycles                810790204                       # Number of cycles decode is running
system.cpu0.decode.SquashCycles               9392930                       # Number of cycles decode is squashing
system.cpu0.decode.SquashedInsts              7736079                       # Number of squashed instructions handled by decode
system.cpu0.decode.UnblockCycles              5633543                       # Number of cycles decode is unblocking
system.cpu0.dtb.accesses                            0                       # DTB accesses
system.cpu0.dtb.hits                                0                       # DTB hits
system.cpu0.dtb.misses                              0                       # DTB misses
system.cpu0.dtb.read_accesses                       0                       # DTB read accesses
system.cpu0.dtb.read_hits                           0                       # DTB read hits
system.cpu0.dtb.read_misses                         0                       # DTB read misses
system.cpu0.dtb.write_accesses                      0                       # DTB write accesses
system.cpu0.dtb.write_hits                          0                       # DTB write hits
system.cpu0.dtb.write_misses                        0                       # DTB write misses
system.cpu0.fetch.Branches                  289840401                       # Number of branches that fetch encountered
system.cpu0.fetch.CacheLines                206368052                       # Number of cache lines fetched
system.cpu0.fetch.Cycles                   1146764400                       # Number of cycles fetch has run and was not squashing or blocked
system.cpu0.fetch.IcacheSquashes              5665817                       # Number of outstanding Icache misses that were squashed
system.cpu0.fetch.IcacheWaitRetryStallCycles          126                       # Number of stall cycles due to full MSHR
system.cpu0.fetch.Insts                    1215786650                       # Number of instructions fetch has processed
system.cpu0.fetch.MiscStallCycles                 136                       # Number of cycles fetch has spent waiting on interrupts, or bad addresses, or out of MSHRs
system.cpu0.fetch.PendingTrapStallCycles          122                       # Number of stall cycles due to pending traps
system.cpu0.fetch.SquashCycles               28176222                       # Number of cycles fetch has spent squashing
system.cpu0.fetch.branchRate                 0.137871                       # Number of branch fetches per cycle
system.cpu0.fetch.icacheStallCycles         798979398                       # Number of cycles fetch is stalled on an Icache miss
system.cpu0.fetch.predictedBranches         162806268                       # Number of branches that fetch has predicted taken
system.cpu0.fetch.rate                       0.578325                       # Number of inst fetches per cycle
system.cpu0.fetch.rateDist::samples        1959832293                       # Number of instructions fetched each cycle (Total)
system.cpu0.fetch.rateDist::mean             0.623607                       # Number of instructions fetched each cycle (Total)
system.cpu0.fetch.rateDist::stdev            0.913579                       # Number of instructions fetched each cycle (Total)
system.cpu0.fetch.rateDist::underflows              0      0.00%      0.00% # Number of instructions fetched each cycle (Total)
system.cpu0.fetch.rateDist::0              1104628032     56.36%     56.36% # Number of instructions fetched each cycle (Total)
system.cpu0.fetch.rateDist::1               624432620     31.86%     88.22% # Number of instructions fetched each cycle (Total)
system.cpu0.fetch.rateDist::2               138483716      7.07%     95.29% # Number of instructions fetched each cycle (Total)
system.cpu0.fetch.rateDist::3                71067209      3.63%     98.92% # Number of instructions fetched each cycle (Total)
system.cpu0.fetch.rateDist::4                 9082583      0.46%     99.38% # Number of instructions fetched each cycle (Total)
system.cpu0.fetch.rateDist::5                 7253260      0.37%     99.75% # Number of instructions fetched each cycle (Total)
system.cpu0.fetch.rateDist::6                 1147542      0.06%     99.81% # Number of instructions fetched each cycle (Total)
system.cpu0.fetch.rateDist::7                 1816541      0.09%     99.90% # Number of instructions fetched each cycle (Total)
system.cpu0.fetch.rateDist::8                 1920790      0.10%    100.00% # Number of instructions fetched each cycle (Total)
system.cpu0.fetch.rateDist::overflows               0      0.00%    100.00% # Number of instructions fetched each cycle (Total)
system.cpu0.fetch.rateDist::min_value               0                       # Number of instructions fetched each cycle (Total)
system.cpu0.fetch.rateDist::max_value               8                       # Number of instructions fetched each cycle (Total)
system.cpu0.fetch.rateDist::total          1959832293                       # Number of instructions fetched each cycle (Total)
system.cpu0.fp_regfile_reads                       40                       # number of floating regfile reads
system.cpu0.fp_regfile_writes                      57                       # number of floating regfile writes
system.cpu0.idleCycles                      142421847                       # Total number of cycles that the CPU has spent unscheduled due to idling
system.cpu0.iew.branchMispredicts             9483775                       # Number of branch mispredicts detected at execute
system.cpu0.iew.exec_branches               270752619                       # Number of branches executed
system.cpu0.iew.exec_nop                            0                       # number of nop insts executed
system.cpu0.iew.exec_rate                    0.526536                       # Inst execution rate
system.cpu0.iew.exec_refs                   483194946                       # number of memory reference insts executed
system.cpu0.iew.exec_stores                 133834578                       # Number of stores executed
system.cpu0.iew.exec_swp                            0                       # number of swp insts executed
system.cpu0.iew.iewBlockCycles              268482642                       # Number of cycles IEW is blocking
system.cpu0.iew.iewDispLoadInsts            362719385                       # Number of dispatched load instructions
system.cpu0.iew.iewDispNonSpecInsts           4197731                       # Number of dispatched non-speculative instructions
system.cpu0.iew.iewDispSquashedInsts          5332014                       # Number of squashed instructions skipped by dispatch
system.cpu0.iew.iewDispStoreInsts           141141440                       # Number of dispatched store instructions
system.cpu0.iew.iewDispatchedInsts         1153239322                       # Number of instructions dispatched to IQ
system.cpu0.iew.iewExecLoadInsts            349360368                       # Number of load instructions executed
system.cpu0.iew.iewExecSquashedInsts          8601666                       # Number of squashed instructions skipped in execute
system.cpu0.iew.iewExecutedInsts           1106912819                       # Number of executed instructions
system.cpu0.iew.iewIQFullEvents               1638349                       # Number of times the IQ has become full, causing a stall
system.cpu0.iew.iewIdleCycles                       0                       # Number of cycles IEW is idle
system.cpu0.iew.iewLSQFullEvents              5553312                       # Number of times the LSQ has become full, causing a stall
system.cpu0.iew.iewSquashCycles               9392930                       # Number of cycles IEW is squashing
system.cpu0.iew.iewUnblockCycles              8703869                       # Number of cycles IEW is unblocking
system.cpu0.iew.lsq.thread0.blockedLoads            0                       # Number of blocked loads due to partial load-store forwarding
system.cpu0.iew.lsq.thread0.cacheBlocked       114240                       # Number of times an access to memory failed due to the cache being blocked
system.cpu0.iew.lsq.thread0.forwLoads        16134376                       # Number of loads that had data forwarded from stores
system.cpu0.iew.lsq.thread0.ignoredResponses        46279                       # Number of memory responses ignored because the instruction is squashed
system.cpu0.iew.lsq.thread0.invAddrLoads            0                       # Number of loads ignored due to an invalid address
system.cpu0.iew.lsq.thread0.invAddrSwpfs            0                       # Number of software prefetches ignored due to an invalid address
system.cpu0.iew.lsq.thread0.memOrderViolation        12924                       # Number of memory ordering violations
system.cpu0.iew.lsq.thread0.rescheduledLoads      4281899                       # Number of loads that were rescheduled
system.cpu0.iew.lsq.thread0.squashedLoads     36508095                       # Number of loads squashed
system.cpu0.iew.lsq.thread0.squashedStores     12182716                       # Number of stores squashed
system.cpu0.iew.memOrderViolationEvents         12924                       # Number of memory order violations
system.cpu0.iew.predictedNotTakenIncorrect      1432218                       # Number of branches that were predicted not taken incorrectly
system.cpu0.iew.predictedTakenIncorrect       8051557                       # Number of branches that were predicted taken incorrectly
system.cpu0.iew.wb_consumers                456112259                       # num instructions consuming a value
system.cpu0.iew.wb_count                   1097013196                       # cumulative count of insts written-back
system.cpu0.iew.wb_fanout                    0.883617                       # average fanout of values written-back
system.cpu0.iew.wb_producers                403028578                       # num instructions producing a value
system.cpu0.iew.wb_rate                      0.521827                       # insts written-back per cycle
system.cpu0.iew.wb_sent                    1097096275                       # cumulative count of insts sent to commit
system.cpu0.int_regfile_reads              1354271334                       # number of integer regfile reads
system.cpu0.int_regfile_writes              700505783                       # number of integer regfile writes
system.cpu0.ipc                              0.499797                       # IPC: Instructions Per Cycle
system.cpu0.ipc_total                        0.499797                       # IPC: Total IPC of All Threads
system.cpu0.iq.FU_type_0::No_OpClass          3626956      0.33%      0.33% # Type of FU issued
system.cpu0.iq.FU_type_0::IntAlu            614232580     55.06%     55.39% # Type of FU issued
system.cpu0.iq.FU_type_0::IntMult             8034767      0.72%     56.11% # Type of FU issued
system.cpu0.iq.FU_type_0::IntDiv              1811557      0.16%     56.27% # Type of FU issued
system.cpu0.iq.FU_type_0::FloatAdd                  0      0.00%     56.27% # Type of FU issued
system.cpu0.iq.FU_type_0::FloatCmp                  4      0.00%     56.27% # Type of FU issued
system.cpu0.iq.FU_type_0::FloatCvt                 12      0.00%     56.27% # Type of FU issued
system.cpu0.iq.FU_type_0::FloatMult                 0      0.00%     56.27% # Type of FU issued
system.cpu0.iq.FU_type_0::FloatMultAcc              0      0.00%     56.27% # Type of FU issued
system.cpu0.iq.FU_type_0::FloatDiv                  2      0.00%     56.27% # Type of FU issued
system.cpu0.iq.FU_type_0::FloatMisc                 4      0.00%     56.27% # Type of FU issued
system.cpu0.iq.FU_type_0::FloatSqrt                 0      0.00%     56.27% # Type of FU issued
system.cpu0.iq.FU_type_0::SimdAdd                   0      0.00%     56.27% # Type of FU issued
system.cpu0.iq.FU_type_0::SimdAddAcc                0      0.00%     56.27% # Type of FU issued
system.cpu0.iq.FU_type_0::SimdAlu                   0      0.00%     56.27% # Type of FU issued
system.cpu0.iq.FU_type_0::SimdCmp                   0      0.00%     56.27% # Type of FU issued
system.cpu0.iq.FU_type_0::SimdCvt                   0      0.00%     56.27% # Type of FU issued
system.cpu0.iq.FU_type_0::SimdMisc                  0      0.00%     56.27% # Type of FU issued
system.cpu0.iq.FU_type_0::SimdMult                  0      0.00%     56.27% # Type of FU issued
system.cpu0.iq.FU_type_0::SimdMultAcc               0      0.00%     56.27% # Type of FU issued
system.cpu0.iq.FU_type_0::SimdShift                 0      0.00%     56.27% # Type of FU issued
system.cpu0.iq.FU_type_0::SimdShiftAcc              0      0.00%     56.27% # Type of FU issued
system.cpu0.iq.FU_type_0::SimdDiv                   0      0.00%     56.27% # Type of FU issued
system.cpu0.iq.FU_type_0::SimdSqrt                  0      0.00%     56.27% # Type of FU issued
system.cpu0.iq.FU_type_0::SimdFloatAdd              0      0.00%     56.27% # Type of FU issued
system.cpu0.iq.FU_type_0::SimdFloatAlu              0      0.00%     56.27% # Type of FU issued
system.cpu0.iq.FU_type_0::SimdFloatCmp              0      0.00%     56.27% # Type of FU issued
system.cpu0.iq.FU_type_0::SimdFloatCvt              0      0.00%     56.27% # Type of FU issued
system.cpu0.iq.FU_type_0::SimdFloatDiv              0      0.00%     56.27% # Type of FU issued
system.cpu0.iq.FU_type_0::SimdFloatMisc             0      0.00%     56.27% # Type of FU issued
system.cpu0.iq.FU_type_0::SimdFloatMult             0      0.00%     56.27% # Type of FU issued
system.cpu0.iq.FU_type_0::SimdFloatMultAcc            0      0.00%     56.27% # Type of FU issued
system.cpu0.iq.FU_type_0::SimdFloatSqrt             0      0.00%     56.27% # Type of FU issued
system.cpu0.iq.FU_type_0::SimdReduceAdd             0      0.00%     56.27% # Type of FU issued
system.cpu0.iq.FU_type_0::SimdReduceAlu             0      0.00%     56.27% # Type of FU issued
system.cpu0.iq.FU_type_0::SimdReduceCmp             0      0.00%     56.27% # Type of FU issued
system.cpu0.iq.FU_type_0::SimdFloatReduceAdd            0      0.00%     56.27% # Type of FU issued
system.cpu0.iq.FU_type_0::SimdFloatReduceCmp            0      0.00%     56.27% # Type of FU issued
system.cpu0.iq.FU_type_0::SimdAes                   0      0.00%     56.27% # Type of FU issued
system.cpu0.iq.FU_type_0::SimdAesMix                0      0.00%     56.27% # Type of FU issued
system.cpu0.iq.FU_type_0::SimdSha1Hash              0      0.00%     56.27% # Type of FU issued
system.cpu0.iq.FU_type_0::SimdSha1Hash2             0      0.00%     56.27% # Type of FU issued
system.cpu0.iq.FU_type_0::SimdSha256Hash            0      0.00%     56.27% # Type of FU issued
system.cpu0.iq.FU_type_0::SimdSha256Hash2            0      0.00%     56.27% # Type of FU issued
system.cpu0.iq.FU_type_0::SimdShaSigma2             0      0.00%     56.27% # Type of FU issued
system.cpu0.iq.FU_type_0::SimdShaSigma3             0      0.00%     56.27% # Type of FU issued
system.cpu0.iq.FU_type_0::SimdPredAlu               0      0.00%     56.27% # Type of FU issued
system.cpu0.iq.FU_type_0::MemRead           354142543     31.75%     88.02% # Type of FU issued
system.cpu0.iq.FU_type_0::MemWrite          133665976     11.98%    100.00% # Type of FU issued
system.cpu0.iq.FU_type_0::FloatMemRead             69      0.00%    100.00% # Type of FU issued
system.cpu0.iq.FU_type_0::FloatMemWrite            16      0.00%    100.00% # Type of FU issued
system.cpu0.iq.FU_type_0::IprAccess                 0      0.00%    100.00% # Type of FU issued
system.cpu0.iq.FU_type_0::InstPrefetch              0      0.00%    100.00% # Type of FU issued
system.cpu0.iq.FU_type_0::total            1115514486                       # Type of FU issued
system.cpu0.iq.fp_alu_accesses                    109                       # Number of floating point alu accesses
system.cpu0.iq.fp_inst_queue_reads                216                       # Number of floating instruction queue reads
system.cpu0.iq.fp_inst_queue_wakeup_accesses           81                       # Number of floating instruction queue wakeup accesses
system.cpu0.iq.fp_inst_queue_writes               262                       # Number of floating instruction queue writes
system.cpu0.iq.fu_busy_cnt                    2183909                       # FU busy when requested
system.cpu0.iq.fu_busy_rate                  0.001958                       # FU busy rate (busy events/executed inst)
system.cpu0.iq.fu_full::No_OpClass                  0      0.00%      0.00% # attempts to use FU when none available
system.cpu0.iq.fu_full::IntAlu                 395526     18.11%     18.11% # attempts to use FU when none available
system.cpu0.iq.fu_full::IntMult                     0      0.00%     18.11% # attempts to use FU when none available
system.cpu0.iq.fu_full::IntDiv                      0      0.00%     18.11% # attempts to use FU when none available
system.cpu0.iq.fu_full::FloatAdd                    0      0.00%     18.11% # attempts to use FU when none available
system.cpu0.iq.fu_full::FloatCmp                    0      0.00%     18.11% # attempts to use FU when none available
system.cpu0.iq.fu_full::FloatCvt                    0      0.00%     18.11% # attempts to use FU when none available
system.cpu0.iq.fu_full::FloatMult                   0      0.00%     18.11% # attempts to use FU when none available
system.cpu0.iq.fu_full::FloatMultAcc                0      0.00%     18.11% # attempts to use FU when none available
system.cpu0.iq.fu_full::FloatDiv                    0      0.00%     18.11% # attempts to use FU when none available
system.cpu0.iq.fu_full::FloatMisc                   0      0.00%     18.11% # attempts to use FU when none available
system.cpu0.iq.fu_full::FloatSqrt                   0      0.00%     18.11% # attempts to use FU when none available
system.cpu0.iq.fu_full::SimdAdd                     0      0.00%     18.11% # attempts to use FU when none available
system.cpu0.iq.fu_full::SimdAddAcc                  0      0.00%     18.11% # attempts to use FU when none available
system.cpu0.iq.fu_full::SimdAlu                     0      0.00%     18.11% # attempts to use FU when none available
system.cpu0.iq.fu_full::SimdCmp                     0      0.00%     18.11% # attempts to use FU when none available
system.cpu0.iq.fu_full::SimdCvt                     0      0.00%     18.11% # attempts to use FU when none available
system.cpu0.iq.fu_full::SimdMisc                    0      0.00%     18.11% # attempts to use FU when none available
system.cpu0.iq.fu_full::SimdMult                    0      0.00%     18.11% # attempts to use FU when none available
system.cpu0.iq.fu_full::SimdMultAcc                 0      0.00%     18.11% # attempts to use FU when none available
system.cpu0.iq.fu_full::SimdShift                   0      0.00%     18.11% # attempts to use FU when none available
system.cpu0.iq.fu_full::SimdShiftAcc                0      0.00%     18.11% # attempts to use FU when none available
system.cpu0.iq.fu_full::SimdDiv                     0      0.00%     18.11% # attempts to use FU when none available
system.cpu0.iq.fu_full::SimdSqrt                    0      0.00%     18.11% # attempts to use FU when none available
system.cpu0.iq.fu_full::SimdFloatAdd                0      0.00%     18.11% # attempts to use FU when none available
system.cpu0.iq.fu_full::SimdFloatAlu                0      0.00%     18.11% # attempts to use FU when none available
system.cpu0.iq.fu_full::SimdFloatCmp                0      0.00%     18.11% # attempts to use FU when none available
system.cpu0.iq.fu_full::SimdFloatCvt                0      0.00%     18.11% # attempts to use FU when none available
system.cpu0.iq.fu_full::SimdFloatDiv                0      0.00%     18.11% # attempts to use FU when none available
system.cpu0.iq.fu_full::SimdFloatMisc               0      0.00%     18.11% # attempts to use FU when none available
system.cpu0.iq.fu_full::SimdFloatMult               0      0.00%     18.11% # attempts to use FU when none available
system.cpu0.iq.fu_full::SimdFloatMultAcc            0      0.00%     18.11% # attempts to use FU when none available
system.cpu0.iq.fu_full::SimdFloatSqrt               0      0.00%     18.11% # attempts to use FU when none available
system.cpu0.iq.fu_full::SimdReduceAdd               0      0.00%     18.11% # attempts to use FU when none available
system.cpu0.iq.fu_full::SimdReduceAlu               0      0.00%     18.11% # attempts to use FU when none available
system.cpu0.iq.fu_full::SimdReduceCmp               0      0.00%     18.11% # attempts to use FU when none available
system.cpu0.iq.fu_full::SimdFloatReduceAdd            0      0.00%     18.11% # attempts to use FU when none available
system.cpu0.iq.fu_full::SimdFloatReduceCmp            0      0.00%     18.11% # attempts to use FU when none available
system.cpu0.iq.fu_full::SimdAes                     0      0.00%     18.11% # attempts to use FU when none available
system.cpu0.iq.fu_full::SimdAesMix                  0      0.00%     18.11% # attempts to use FU when none available
system.cpu0.iq.fu_full::SimdSha1Hash                0      0.00%     18.11% # attempts to use FU when none available
system.cpu0.iq.fu_full::SimdSha1Hash2               0      0.00%     18.11% # attempts to use FU when none available
system.cpu0.iq.fu_full::SimdSha256Hash              0      0.00%     18.11% # attempts to use FU when none available
system.cpu0.iq.fu_full::SimdSha256Hash2             0      0.00%     18.11% # attempts to use FU when none available
system.cpu0.iq.fu_full::SimdShaSigma2               0      0.00%     18.11% # attempts to use FU when none available
system.cpu0.iq.fu_full::SimdShaSigma3               0      0.00%     18.11% # attempts to use FU when none available
system.cpu0.iq.fu_full::SimdPredAlu                 0      0.00%     18.11% # attempts to use FU when none available
system.cpu0.iq.fu_full::MemRead               1621189     74.23%     92.34% # attempts to use FU when none available
system.cpu0.iq.fu_full::MemWrite               167192      7.66%    100.00% # attempts to use FU when none available
system.cpu0.iq.fu_full::FloatMemRead                0      0.00%    100.00% # attempts to use FU when none available
system.cpu0.iq.fu_full::FloatMemWrite               2      0.00%    100.00% # attempts to use FU when none available
system.cpu0.iq.fu_full::IprAccess                   0      0.00%    100.00% # attempts to use FU when none available
system.cpu0.iq.fu_full::InstPrefetch                0      0.00%    100.00% # attempts to use FU when none available
system.cpu0.iq.int_alu_accesses            1114071330                       # Number of integer alu accesses
system.cpu0.iq.int_inst_queue_reads        4193174350                       # Number of integer instruction queue reads
system.cpu0.iq.int_inst_queue_wakeup_accesses   1097013115                       # Number of integer instruction queue wakeup accesses
system.cpu0.iq.int_inst_queue_writes       1253976739                       # Number of integer instruction queue writes
system.cpu0.iq.iqInstsAdded                1140665605                       # Number of instructions added to the IQ (excludes non-spec)
system.cpu0.iq.iqInstsIssued               1115514486                       # Number of instructions issued
system.cpu0.iq.iqNonSpecInstsAdded           12573717                       # Number of non-speculative instructions added to the IQ
system.cpu0.iq.iqSquashedInstsExamined      100725577                       # Number of squashed instructions iterated over during squash; mainly for profiling
system.cpu0.iq.iqSquashedInstsIssued           129393                       # Number of squashed instructions issued
system.cpu0.iq.iqSquashedNonSpecRemoved       7132313                       # Number of squashed non-spec instructions that were removed
system.cpu0.iq.iqSquashedOperandsExamined     57421097                       # Number of squashed operands that are examined and possibly removed from graph
system.cpu0.iq.issued_per_cycle::samples   1959832293                       # Number of insts issued each cycle
system.cpu0.iq.issued_per_cycle::mean        0.569189                       # Number of insts issued each cycle
system.cpu0.iq.issued_per_cycle::stdev       0.799108                       # Number of insts issued each cycle
system.cpu0.iq.issued_per_cycle::underflows            0      0.00%      0.00% # Number of insts issued each cycle
system.cpu0.iq.issued_per_cycle::0         1147478944     58.55%     58.55% # Number of insts issued each cycle
system.cpu0.iq.issued_per_cycle::1          568003182     28.98%     87.53% # Number of insts issued each cycle
system.cpu0.iq.issued_per_cycle::2          201024600     10.26%     97.79% # Number of insts issued each cycle
system.cpu0.iq.issued_per_cycle::3           33295900      1.70%     99.49% # Number of insts issued each cycle
system.cpu0.iq.issued_per_cycle::4            6410107      0.33%     99.82% # Number of insts issued each cycle
system.cpu0.iq.issued_per_cycle::5            2345181      0.12%     99.93% # Number of insts issued each cycle
system.cpu0.iq.issued_per_cycle::6             862101      0.04%     99.98% # Number of insts issued each cycle
system.cpu0.iq.issued_per_cycle::7             262759      0.01%     99.99% # Number of insts issued each cycle
system.cpu0.iq.issued_per_cycle::8             149519      0.01%    100.00% # Number of insts issued each cycle
system.cpu0.iq.issued_per_cycle::overflows            0      0.00%    100.00% # Number of insts issued each cycle
system.cpu0.iq.issued_per_cycle::min_value            0                       # Number of insts issued each cycle
system.cpu0.iq.issued_per_cycle::max_value            8                       # Number of insts issued each cycle
system.cpu0.iq.issued_per_cycle::total     1959832293                       # Number of insts issued each cycle
system.cpu0.iq.rate                          0.530628                       # Inst issue rate
system.cpu0.iq.vec_alu_accesses                     0                       # Number of vector alu accesses
system.cpu0.iq.vec_inst_queue_reads                 0                       # Number of vector instruction queue reads
system.cpu0.iq.vec_inst_queue_wakeup_accesses            0                       # Number of vector instruction queue wakeup accesses
system.cpu0.iq.vec_inst_queue_writes                0                       # Number of vector instruction queue writes
system.cpu0.itb.accesses                            0                       # DTB accesses
system.cpu0.itb.hits                                0                       # DTB hits
system.cpu0.itb.misses                              0                       # DTB misses
system.cpu0.itb.read_accesses                       0                       # DTB read accesses
system.cpu0.itb.read_hits                           0                       # DTB read hits
system.cpu0.itb.read_misses                         0                       # DTB read misses
system.cpu0.itb.write_accesses                      0                       # DTB write accesses
system.cpu0.itb.write_hits                          0                       # DTB write hits
system.cpu0.itb.write_misses                        0                       # DTB write misses
system.cpu0.memDep0.conflictingLoads         30103179                       # Number of conflicting loads.
system.cpu0.memDep0.conflictingStores         5204048                       # Number of conflicting stores.
system.cpu0.memDep0.insertedLoads           362719385                       # Number of loads inserted to the mem dependence unit.
system.cpu0.memDep0.insertedStores          141141440                       # Number of stores inserted to the mem dependence unit.
system.cpu0.misc_regfile_reads                   1505                       # number of misc regfile reads
system.cpu0.misc_regfile_writes                    22                       # number of misc regfile writes
system.cpu0.numCycles                      2102254140                       # number of cpu cycles simulated
system.cpu0.numWorkItemsCompleted                   0                       # number of work items this cpu completed
system.cpu0.numWorkItemsStarted                     0                       # number of work items this cpu started
system.cpu0.quiesceCycles                     3046113                       # Total number of cycles that CPU has spent quiesced or waiting for an interrupt
system.cpu0.rename.BlockCycles              289321358                       # Number of cycles rename is blocking
system.cpu0.rename.CommittedMaps            670582387                       # Number of HB maps that are committed
system.cpu0.rename.IQFullEvents               8773860                       # Number of times rename has blocked due to IQ full
system.cpu0.rename.IdleCycles               819095831                       # Number of cycles rename is idle
system.cpu0.rename.LQFullEvents              13902943                       # Number of times rename has blocked due to LQ full
system.cpu0.rename.ROBFullEvents                70027                       # Number of times rename has blocked due to ROB full
system.cpu0.rename.RenameLookups           1430493439                       # Number of register rename lookups that rename has made
system.cpu0.rename.RenamedInsts            1169852776                       # Number of instructions processed by rename
system.cpu0.rename.RenamedOperands          750951588                       # Number of destination operands rename has renamed
system.cpu0.rename.RunCycles                802596310                       # Number of cycles rename is running
system.cpu0.rename.SQFullEvents              15056640                       # Number of times rename has blocked due to SQ full
system.cpu0.rename.SquashCycles               9392930                       # Number of cycles rename is squashing
system.cpu0.rename.UnblockCycles             39292150                       # Number of cycles rename is unblocking
system.cpu0.rename.UndoneMaps                80369193                       # Number of HB maps that are undone due to squashing
system.cpu0.rename.fp_rename_lookups               40                       # Number of floating rename lookups
system.cpu0.rename.int_rename_lookups      1430493399                       # Number of integer rename lookups
system.cpu0.rename.serializeStallCycles        133714                       # count of cycles rename stalled for serializing inst
system.cpu0.rename.serializingInsts              4733                       # count of serializing insts renamed
system.cpu0.rename.skidInsts                 22351195                       # count of insts added to the skid buffer
system.cpu0.rename.tempSerializingInsts          4731                       # count of temporary serializing insts renamed
system.cpu0.rob.rob_reads                  3064897158                       # The number of ROB reads
system.cpu0.rob.rob_writes                 2325149842                       # The number of ROB writes
system.cpu0.timesIdled                       25794154                       # Number of times that the entire CPU went into an idle state and unscheduled itself
system.cpu0.workload.numSyscalls                 1472                       # Number of system calls
system.cpu1.branchPred.BTBCorrect                   0                       # Number of correct BTB predictions (this stat may not work properly.
system.cpu1.branchPred.BTBHitPct            94.354278                       # BTB Hit Percentage
system.cpu1.branchPred.BTBHits                9830158                       # Number of BTB hits
system.cpu1.branchPred.BTBLookups            10418349                       # Number of BTB lookups
system.cpu1.branchPred.RASInCorrect                 0                       # Number of incorrect RAS predictions.
system.cpu1.branchPred.condIncorrect          2000038                       # Number of conditional branches incorrect
system.cpu1.branchPred.condPredicted         19143909                       # Number of conditional branches predicted
system.cpu1.branchPred.indirectHits            322659                       # Number of indirect target hits.
system.cpu1.branchPred.indirectLookups         545870                       # Number of indirect predictor lookups.
system.cpu1.branchPred.indirectMisses          223211                       # Number of indirect misses.
system.cpu1.branchPred.lookups               20912421                       # Number of BP lookups
system.cpu1.branchPred.usedRAS                      0                       # Number of times the RAS was used to get a target.
system.cpu1.branchPredindirectMispredicted         4906                       # Number of mispredicted indirect branches.
system.cpu1.commit.amos                       1811198                       # Number of atomic instructions committed
system.cpu1.commit.branchMispredicts          1168046                       # The number of times a branch was mispredicted
system.cpu1.commit.branches                  12200287                       # Number of branches committed
system.cpu1.commit.bw_lim_events              1267135                       # number cycles where commit BW limit reached
system.cpu1.commit.commitNonSpecStalls        5434264                       # The number of times commit has been forced to stall to communicate backwards
system.cpu1.commit.commitSquashedInsts       22828344                       # The number of squashed insts skipped by commit
system.cpu1.commit.committedInsts            55065900                       # Number of instructions committed
system.cpu1.commit.committedOps              56877273                       # Number of ops (including micro ops) committed
system.cpu1.commit.committed_per_cycle::samples    354650821                       # Number of insts commited each cycle
system.cpu1.commit.committed_per_cycle::mean     0.160375                       # Number of insts commited each cycle
system.cpu1.commit.committed_per_cycle::stdev     0.793002                       # Number of insts commited each cycle
system.cpu1.commit.committed_per_cycle::underflows            0      0.00%      0.00% # Number of insts commited each cycle
system.cpu1.commit.committed_per_cycle::0    331291358     93.41%     93.41% # Number of insts commited each cycle
system.cpu1.commit.committed_per_cycle::1     11518550      3.25%     96.66% # Number of insts commited each cycle
system.cpu1.commit.committed_per_cycle::2      3759910      1.06%     97.72% # Number of insts commited each cycle
system.cpu1.commit.committed_per_cycle::3      3656002      1.03%     98.75% # Number of insts commited each cycle
system.cpu1.commit.committed_per_cycle::4      1007056      0.28%     99.04% # Number of insts commited each cycle
system.cpu1.commit.committed_per_cycle::5       316994      0.09%     99.13% # Number of insts commited each cycle
system.cpu1.commit.committed_per_cycle::6      1716089      0.48%     99.61% # Number of insts commited each cycle
system.cpu1.commit.committed_per_cycle::7       117727      0.03%     99.64% # Number of insts commited each cycle
system.cpu1.commit.committed_per_cycle::8      1267135      0.36%    100.00% # Number of insts commited each cycle
system.cpu1.commit.committed_per_cycle::overflows            0      0.00%    100.00% # Number of insts commited each cycle
system.cpu1.commit.committed_per_cycle::min_value            0                       # Number of insts commited each cycle
system.cpu1.commit.committed_per_cycle::max_value            8                       # Number of insts commited each cycle
system.cpu1.commit.committed_per_cycle::total    354650821                       # Number of insts commited each cycle
system.cpu1.commit.fp_insts                        12                       # Number of committed floating point instructions.
system.cpu1.commit.function_calls              502110                       # Number of function calls committed.
system.cpu1.commit.int_insts                 52963325                       # Number of committed integer instructions.
system.cpu1.commit.loads                     16124178                       # Number of loads committed
system.cpu1.commit.membars                    3622518                       # Number of memory barriers committed
system.cpu1.commit.op_class_0::No_OpClass      3622518      6.37%      6.37% # Class of committed instruction
system.cpu1.commit.op_class_0::IntAlu        32003968     56.27%     62.64% # Class of committed instruction
system.cpu1.commit.op_class_0::IntMult             43      0.00%     62.64% # Class of committed instruction
system.cpu1.commit.op_class_0::IntDiv              86      0.00%     62.64% # Class of committed instruction
system.cpu1.commit.op_class_0::FloatAdd             0      0.00%     62.64% # Class of committed instruction
system.cpu1.commit.op_class_0::FloatCmp             0      0.00%     62.64% # Class of committed instruction
system.cpu1.commit.op_class_0::FloatCvt             0      0.00%     62.64% # Class of committed instruction
system.cpu1.commit.op_class_0::FloatMult            0      0.00%     62.64% # Class of committed instruction
system.cpu1.commit.op_class_0::FloatMultAcc            0      0.00%     62.64% # Class of committed instruction
system.cpu1.commit.op_class_0::FloatDiv             0      0.00%     62.64% # Class of committed instruction
system.cpu1.commit.op_class_0::FloatMisc            0      0.00%     62.64% # Class of committed instruction
system.cpu1.commit.op_class_0::FloatSqrt            0      0.00%     62.64% # Class of committed instruction
system.cpu1.commit.op_class_0::SimdAdd              0      0.00%     62.64% # Class of committed instruction
system.cpu1.commit.op_class_0::SimdAddAcc            0      0.00%     62.64% # Class of committed instruction
system.cpu1.commit.op_class_0::SimdAlu              0      0.00%     62.64% # Class of committed instruction
system.cpu1.commit.op_class_0::SimdCmp              0      0.00%     62.64% # Class of committed instruction
system.cpu1.commit.op_class_0::SimdCvt              0      0.00%     62.64% # Class of committed instruction
system.cpu1.commit.op_class_0::SimdMisc             0      0.00%     62.64% # Class of committed instruction
system.cpu1.commit.op_class_0::SimdMult             0      0.00%     62.64% # Class of committed instruction
system.cpu1.commit.op_class_0::SimdMultAcc            0      0.00%     62.64% # Class of committed instruction
system.cpu1.commit.op_class_0::SimdShift            0      0.00%     62.64% # Class of committed instruction
system.cpu1.commit.op_class_0::SimdShiftAcc            0      0.00%     62.64% # Class of committed instruction
system.cpu1.commit.op_class_0::SimdDiv              0      0.00%     62.64% # Class of committed instruction
system.cpu1.commit.op_class_0::SimdSqrt             0      0.00%     62.64% # Class of committed instruction
system.cpu1.commit.op_class_0::SimdFloatAdd            0      0.00%     62.64% # Class of committed instruction
system.cpu1.commit.op_class_0::SimdFloatAlu            0      0.00%     62.64% # Class of committed instruction
system.cpu1.commit.op_class_0::SimdFloatCmp            0      0.00%     62.64% # Class of committed instruction
system.cpu1.commit.op_class_0::SimdFloatCvt            0      0.00%     62.64% # Class of committed instruction
system.cpu1.commit.op_class_0::SimdFloatDiv            0      0.00%     62.64% # Class of committed instruction
system.cpu1.commit.op_class_0::SimdFloatMisc            0      0.00%     62.64% # Class of committed instruction
system.cpu1.commit.op_class_0::SimdFloatMult            0      0.00%     62.64% # Class of committed instruction
system.cpu1.commit.op_class_0::SimdFloatMultAcc            0      0.00%     62.64% # Class of committed instruction
system.cpu1.commit.op_class_0::SimdFloatSqrt            0      0.00%     62.64% # Class of committed instruction
system.cpu1.commit.op_class_0::SimdReduceAdd            0      0.00%     62.64% # Class of committed instruction
system.cpu1.commit.op_class_0::SimdReduceAlu            0      0.00%     62.64% # Class of committed instruction
system.cpu1.commit.op_class_0::SimdReduceCmp            0      0.00%     62.64% # Class of committed instruction
system.cpu1.commit.op_class_0::SimdFloatReduceAdd            0      0.00%     62.64% # Class of committed instruction
system.cpu1.commit.op_class_0::SimdFloatReduceCmp            0      0.00%     62.64% # Class of committed instruction
system.cpu1.commit.op_class_0::SimdAes              0      0.00%     62.64% # Class of committed instruction
system.cpu1.commit.op_class_0::SimdAesMix            0      0.00%     62.64% # Class of committed instruction
system.cpu1.commit.op_class_0::SimdSha1Hash            0      0.00%     62.64% # Class of committed instruction
system.cpu1.commit.op_class_0::SimdSha1Hash2            0      0.00%     62.64% # Class of committed instruction
system.cpu1.commit.op_class_0::SimdSha256Hash            0      0.00%     62.64% # Class of committed instruction
system.cpu1.commit.op_class_0::SimdSha256Hash2            0      0.00%     62.64% # Class of committed instruction
system.cpu1.commit.op_class_0::SimdShaSigma2            0      0.00%     62.64% # Class of committed instruction
system.cpu1.commit.op_class_0::SimdShaSigma3            0      0.00%     62.64% # Class of committed instruction
system.cpu1.commit.op_class_0::SimdPredAlu            0      0.00%     62.64% # Class of committed instruction
system.cpu1.commit.op_class_0::MemRead       17935376     31.53%     94.17% # Class of committed instruction
system.cpu1.commit.op_class_0::MemWrite       3315270      5.83%    100.00% # Class of committed instruction
system.cpu1.commit.op_class_0::FloatMemRead            0      0.00%    100.00% # Class of committed instruction
system.cpu1.commit.op_class_0::FloatMemWrite           12      0.00%    100.00% # Class of committed instruction
system.cpu1.commit.op_class_0::IprAccess            0      0.00%    100.00% # Class of committed instruction
system.cpu1.commit.op_class_0::InstPrefetch            0      0.00%    100.00% # Class of committed instruction
system.cpu1.commit.op_class_0::total         56877273                       # Class of committed instruction
system.cpu1.commit.refs                      21250658                       # Number of memory references committed
system.cpu1.commit.swp_count                        0                       # Number of s/w prefetches committed
system.cpu1.commit.vec_insts                        0                       # Number of committed Vector instructions.
system.cpu1.committedInsts                   55065900                       # Number of Instructions Simulated
system.cpu1.committedOps                     56877273                       # Number of Ops (including micro ops) Simulated
system.cpu1.cpi                              6.510506                       # CPI: Cycles Per Instruction
system.cpu1.cpi_total                        6.510506                       # CPI: Total CPI of All Threads
system.cpu1.decode.BlockedCycles            311292044                       # Number of cycles decode is blocked
system.cpu1.decode.BranchMispred               838238                       # Number of times decode detected a branch misprediction
system.cpu1.decode.BranchResolved             8878586                       # Number of times decode resolved a branch
system.cpu1.decode.DecodedInsts              87779986                       # Number of instructions handled by decode
system.cpu1.decode.IdleCycles                12396503                       # Number of cycles decode is idle
system.cpu1.decode.RunCycles                 28859548                       # Number of cycles decode is running
system.cpu1.decode.SquashCycles               1168622                       # Number of cycles decode is squashing
system.cpu1.decode.SquashedInsts              1657017                       # Number of squashed instructions handled by decode
system.cpu1.decode.UnblockCycles              4545804                       # Number of cycles decode is unblocking
system.cpu1.dtb.accesses                            0                       # DTB accesses
system.cpu1.dtb.hits                                0                       # DTB hits
system.cpu1.dtb.misses                              0                       # DTB misses
system.cpu1.dtb.read_accesses                       0                       # DTB read accesses
system.cpu1.dtb.read_hits                           0                       # DTB read hits
system.cpu1.dtb.read_misses                         0                       # DTB read misses
system.cpu1.dtb.write_accesses                      0                       # DTB write accesses
system.cpu1.dtb.write_hits                          0                       # DTB write hits
system.cpu1.dtb.write_misses                        0                       # DTB write misses
system.cpu1.fetch.Branches                   20912421                       # Number of branches that fetch encountered
system.cpu1.fetch.CacheLines                 12831707                       # Number of cache lines fetched
system.cpu1.fetch.Cycles                    342246251                       # Number of cycles fetch has run and was not squashing or blocked
system.cpu1.fetch.IcacheSquashes               156837                       # Number of outstanding Icache misses that were squashed
system.cpu1.fetch.IcacheWaitRetryStallCycles           16                       # Number of stall cycles due to full MSHR
system.cpu1.fetch.Insts                     101926673                       # Number of instructions fetch has processed
system.cpu1.fetch.MiscStallCycles                   2                       # Number of cycles fetch has spent waiting on interrupts, or bad addresses, or out of MSHRs
system.cpu1.fetch.SquashCycles                4001228                       # Number of cycles fetch has spent squashing
system.cpu1.fetch.branchRate                 0.058332                       # Number of branch fetches per cycle
system.cpu1.fetch.icacheStallCycles          14015638                       # Number of cycles fetch is stalled on an Icache miss
system.cpu1.fetch.predictedBranches          10152817                       # Number of branches that fetch has predicted taken
system.cpu1.fetch.rate                       0.284309                       # Number of inst fetches per cycle
system.cpu1.fetch.rateDist::samples         358262521                       # Number of instructions fetched each cycle (Total)
system.cpu1.fetch.rateDist::mean             0.295707                       # Number of instructions fetched each cycle (Total)
system.cpu1.fetch.rateDist::stdev            0.793576                       # Number of instructions fetched each cycle (Total)
system.cpu1.fetch.rateDist::underflows              0      0.00%      0.00% # Number of instructions fetched each cycle (Total)
system.cpu1.fetch.rateDist::0               298561678     83.34%     83.34% # Number of instructions fetched each cycle (Total)
system.cpu1.fetch.rateDist::1                32132450      8.97%     92.30% # Number of instructions fetched each cycle (Total)
system.cpu1.fetch.rateDist::2                16449058      4.59%     96.90% # Number of instructions fetched each cycle (Total)
system.cpu1.fetch.rateDist::3                 6093395      1.70%     98.60% # Number of instructions fetched each cycle (Total)
system.cpu1.fetch.rateDist::4                 3002861      0.84%     99.44% # Number of instructions fetched each cycle (Total)
system.cpu1.fetch.rateDist::5                 1527434      0.43%     99.86% # Number of instructions fetched each cycle (Total)
system.cpu1.fetch.rateDist::6                  491873      0.14%    100.00% # Number of instructions fetched each cycle (Total)
system.cpu1.fetch.rateDist::7                     143      0.00%    100.00% # Number of instructions fetched each cycle (Total)
system.cpu1.fetch.rateDist::8                    3629      0.00%    100.00% # Number of instructions fetched each cycle (Total)
system.cpu1.fetch.rateDist::overflows               0      0.00%    100.00% # Number of instructions fetched each cycle (Total)
system.cpu1.fetch.rateDist::min_value               0                       # Number of instructions fetched each cycle (Total)
system.cpu1.fetch.rateDist::max_value               8                       # Number of instructions fetched each cycle (Total)
system.cpu1.fetch.rateDist::total           358262521                       # Number of instructions fetched each cycle (Total)
system.cpu1.fp_regfile_reads                       12                       # number of floating regfile reads
system.cpu1.idleCycles                         244333                       # Total number of cycles that the CPU has spent unscheduled due to idling
system.cpu1.iew.branchMispredicts             1235730                       # Number of branch mispredicts detected at execute
system.cpu1.iew.exec_branches                14827784                       # Number of branches executed
system.cpu1.iew.exec_nop                            0                       # number of nop insts executed
system.cpu1.iew.exec_rate                    0.180497                       # Inst execution rate
system.cpu1.iew.exec_refs                    22597170                       # number of memory reference insts executed
system.cpu1.iew.exec_stores                   5222595                       # Number of stores executed
system.cpu1.iew.exec_swp                            0                       # number of swp insts executed
system.cpu1.iew.iewBlockCycles              269427632                       # Number of cycles IEW is blocking
system.cpu1.iew.iewDispLoadInsts             22652283                       # Number of dispatched load instructions
system.cpu1.iew.iewDispNonSpecInsts           2711947                       # Number of dispatched non-speculative instructions
system.cpu1.iew.iewDispSquashedInsts          2020217                       # Number of squashed instructions skipped by dispatch
system.cpu1.iew.iewDispStoreInsts             7103340                       # Number of dispatched store instructions
system.cpu1.iew.iewDispatchedInsts           79695405                       # Number of instructions dispatched to IQ
system.cpu1.iew.iewExecLoadInsts             17374575                       # Number of load instructions executed
system.cpu1.iew.iewExecSquashedInsts           872856                       # Number of squashed instructions skipped in execute
system.cpu1.iew.iewExecutedInsts             64709268                       # Number of executed instructions
system.cpu1.iew.iewIQFullEvents               1758110                       # Number of times the IQ has become full, causing a stall
system.cpu1.iew.iewIdleCycles                       0                       # Number of cycles IEW is idle
system.cpu1.iew.iewLSQFullEvents              2712833                       # Number of times the LSQ has become full, causing a stall
system.cpu1.iew.iewSquashCycles               1168622                       # Number of cycles IEW is squashing
system.cpu1.iew.iewUnblockCycles              6404893                       # Number of cycles IEW is unblocking
system.cpu1.iew.lsq.thread0.blockedLoads            0                       # Number of blocked loads due to partial load-store forwarding
system.cpu1.iew.lsq.thread0.cacheBlocked        24011                       # Number of times an access to memory failed due to the cache being blocked
system.cpu1.iew.lsq.thread0.forwLoads          317894                       # Number of loads that had data forwarded from stores
system.cpu1.iew.lsq.thread0.ignoredResponses         9254                       # Number of memory responses ignored because the instruction is squashed
system.cpu1.iew.lsq.thread0.invAddrLoads            0                       # Number of loads ignored due to an invalid address
system.cpu1.iew.lsq.thread0.invAddrSwpfs            0                       # Number of software prefetches ignored due to an invalid address
system.cpu1.iew.lsq.thread0.memOrderViolation          678                       # Number of memory ordering violations
system.cpu1.iew.lsq.thread0.rescheduledLoads         3073                       # Number of loads that were rescheduled
system.cpu1.iew.lsq.thread0.squashedLoads      6528105                       # Number of loads squashed
system.cpu1.iew.lsq.thread0.squashedStores      1976860                       # Number of stores squashed
system.cpu1.iew.memOrderViolationEvents           678                       # Number of memory order violations
system.cpu1.iew.predictedNotTakenIncorrect       209250                       # Number of branches that were predicted not taken incorrectly
system.cpu1.iew.predictedTakenIncorrect       1026480                       # Number of branches that were predicted taken incorrectly
system.cpu1.iew.wb_consumers                 36558418                       # num instructions consuming a value
system.cpu1.iew.wb_count                     64240407                       # cumulative count of insts written-back
system.cpu1.iew.wb_fanout                    0.853951                       # average fanout of values written-back
system.cpu1.iew.wb_producers                 31219093                       # num instructions producing a value
system.cpu1.iew.wb_rate                      0.179189                       # insts written-back per cycle
system.cpu1.iew.wb_sent                      64258618                       # cumulative count of insts sent to commit
system.cpu1.int_regfile_reads                80791312                       # number of integer regfile reads
system.cpu1.int_regfile_writes               42676553                       # number of integer regfile writes
system.cpu1.ipc                              0.153598                       # IPC: Instructions Per Cycle
system.cpu1.ipc_total                        0.153598                       # IPC: Total IPC of All Threads
system.cpu1.iq.FU_type_0::No_OpClass          3622623      5.52%      5.52% # Type of FU issued
system.cpu1.iq.FU_type_0::IntAlu             39214425     59.79%     65.32% # Type of FU issued
system.cpu1.iq.FU_type_0::IntMult                  44      0.00%     65.32% # Type of FU issued
system.cpu1.iq.FU_type_0::IntDiv                   88      0.00%     65.32% # Type of FU issued
system.cpu1.iq.FU_type_0::FloatAdd                  0      0.00%     65.32% # Type of FU issued
system.cpu1.iq.FU_type_0::FloatCmp                  0      0.00%     65.32% # Type of FU issued
system.cpu1.iq.FU_type_0::FloatCvt                  0      0.00%     65.32% # Type of FU issued
system.cpu1.iq.FU_type_0::FloatMult                 0      0.00%     65.32% # Type of FU issued
system.cpu1.iq.FU_type_0::FloatMultAcc              0      0.00%     65.32% # Type of FU issued
system.cpu1.iq.FU_type_0::FloatDiv                  0      0.00%     65.32% # Type of FU issued
system.cpu1.iq.FU_type_0::FloatMisc                 0      0.00%     65.32% # Type of FU issued
system.cpu1.iq.FU_type_0::FloatSqrt                 0      0.00%     65.32% # Type of FU issued
system.cpu1.iq.FU_type_0::SimdAdd                   0      0.00%     65.32% # Type of FU issued
system.cpu1.iq.FU_type_0::SimdAddAcc                0      0.00%     65.32% # Type of FU issued
system.cpu1.iq.FU_type_0::SimdAlu                   0      0.00%     65.32% # Type of FU issued
system.cpu1.iq.FU_type_0::SimdCmp                   0      0.00%     65.32% # Type of FU issued
system.cpu1.iq.FU_type_0::SimdCvt                   0      0.00%     65.32% # Type of FU issued
system.cpu1.iq.FU_type_0::SimdMisc                  0      0.00%     65.32% # Type of FU issued
system.cpu1.iq.FU_type_0::SimdMult                  0      0.00%     65.32% # Type of FU issued
system.cpu1.iq.FU_type_0::SimdMultAcc               0      0.00%     65.32% # Type of FU issued
system.cpu1.iq.FU_type_0::SimdShift                 0      0.00%     65.32% # Type of FU issued
system.cpu1.iq.FU_type_0::SimdShiftAcc              0      0.00%     65.32% # Type of FU issued
system.cpu1.iq.FU_type_0::SimdDiv                   0      0.00%     65.32% # Type of FU issued
system.cpu1.iq.FU_type_0::SimdSqrt                  0      0.00%     65.32% # Type of FU issued
system.cpu1.iq.FU_type_0::SimdFloatAdd              0      0.00%     65.32% # Type of FU issued
system.cpu1.iq.FU_type_0::SimdFloatAlu              0      0.00%     65.32% # Type of FU issued
system.cpu1.iq.FU_type_0::SimdFloatCmp              0      0.00%     65.32% # Type of FU issued
system.cpu1.iq.FU_type_0::SimdFloatCvt              0      0.00%     65.32% # Type of FU issued
system.cpu1.iq.FU_type_0::SimdFloatDiv              0      0.00%     65.32% # Type of FU issued
system.cpu1.iq.FU_type_0::SimdFloatMisc             0      0.00%     65.32% # Type of FU issued
system.cpu1.iq.FU_type_0::SimdFloatMult             0      0.00%     65.32% # Type of FU issued
system.cpu1.iq.FU_type_0::SimdFloatMultAcc            0      0.00%     65.32% # Type of FU issued
system.cpu1.iq.FU_type_0::SimdFloatSqrt             0      0.00%     65.32% # Type of FU issued
system.cpu1.iq.FU_type_0::SimdReduceAdd             0      0.00%     65.32% # Type of FU issued
system.cpu1.iq.FU_type_0::SimdReduceAlu             0      0.00%     65.32% # Type of FU issued
system.cpu1.iq.FU_type_0::SimdReduceCmp             0      0.00%     65.32% # Type of FU issued
system.cpu1.iq.FU_type_0::SimdFloatReduceAdd            0      0.00%     65.32% # Type of FU issued
system.cpu1.iq.FU_type_0::SimdFloatReduceCmp            0      0.00%     65.32% # Type of FU issued
system.cpu1.iq.FU_type_0::SimdAes                   0      0.00%     65.32% # Type of FU issued
system.cpu1.iq.FU_type_0::SimdAesMix                0      0.00%     65.32% # Type of FU issued
system.cpu1.iq.FU_type_0::SimdSha1Hash              0      0.00%     65.32% # Type of FU issued
system.cpu1.iq.FU_type_0::SimdSha1Hash2             0      0.00%     65.32% # Type of FU issued
system.cpu1.iq.FU_type_0::SimdSha256Hash            0      0.00%     65.32% # Type of FU issued
system.cpu1.iq.FU_type_0::SimdSha256Hash2            0      0.00%     65.32% # Type of FU issued
system.cpu1.iq.FU_type_0::SimdShaSigma2             0      0.00%     65.32% # Type of FU issued
system.cpu1.iq.FU_type_0::SimdShaSigma3             0      0.00%     65.32% # Type of FU issued
system.cpu1.iq.FU_type_0::SimdPredAlu               0      0.00%     65.32% # Type of FU issued
system.cpu1.iq.FU_type_0::MemRead            19318687     29.46%     94.78% # Type of FU issued
system.cpu1.iq.FU_type_0::MemWrite            3426245      5.22%    100.00% # Type of FU issued
system.cpu1.iq.FU_type_0::FloatMemRead              0      0.00%    100.00% # Type of FU issued
system.cpu1.iq.FU_type_0::FloatMemWrite            12      0.00%    100.00% # Type of FU issued
system.cpu1.iq.FU_type_0::IprAccess                 0      0.00%    100.00% # Type of FU issued
system.cpu1.iq.FU_type_0::InstPrefetch              0      0.00%    100.00% # Type of FU issued
system.cpu1.iq.FU_type_0::total              65582124                       # Type of FU issued
system.cpu1.iq.fp_alu_accesses                     14                       # Number of floating point alu accesses
system.cpu1.iq.fp_inst_queue_reads                 26                       # Number of floating instruction queue reads
system.cpu1.iq.fp_inst_queue_wakeup_accesses           12                       # Number of floating instruction queue wakeup accesses
system.cpu1.iq.fp_inst_queue_writes                12                       # Number of floating instruction queue writes
system.cpu1.iq.fu_busy_cnt                    1921285                       # FU busy when requested
system.cpu1.iq.fu_busy_rate                  0.029296                       # FU busy rate (busy events/executed inst)
system.cpu1.iq.fu_full::No_OpClass                  0      0.00%      0.00% # attempts to use FU when none available
system.cpu1.iq.fu_full::IntAlu                 310174     16.14%     16.14% # attempts to use FU when none available
system.cpu1.iq.fu_full::IntMult                     0      0.00%     16.14% # attempts to use FU when none available
system.cpu1.iq.fu_full::IntDiv                      0      0.00%     16.14% # attempts to use FU when none available
system.cpu1.iq.fu_full::FloatAdd                    0      0.00%     16.14% # attempts to use FU when none available
system.cpu1.iq.fu_full::FloatCmp                    0      0.00%     16.14% # attempts to use FU when none available
system.cpu1.iq.fu_full::FloatCvt                    0      0.00%     16.14% # attempts to use FU when none available
system.cpu1.iq.fu_full::FloatMult                   0      0.00%     16.14% # attempts to use FU when none available
system.cpu1.iq.fu_full::FloatMultAcc                0      0.00%     16.14% # attempts to use FU when none available
system.cpu1.iq.fu_full::FloatDiv                    0      0.00%     16.14% # attempts to use FU when none available
system.cpu1.iq.fu_full::FloatMisc                   0      0.00%     16.14% # attempts to use FU when none available
system.cpu1.iq.fu_full::FloatSqrt                   0      0.00%     16.14% # attempts to use FU when none available
system.cpu1.iq.fu_full::SimdAdd                     0      0.00%     16.14% # attempts to use FU when none available
system.cpu1.iq.fu_full::SimdAddAcc                  0      0.00%     16.14% # attempts to use FU when none available
system.cpu1.iq.fu_full::SimdAlu                     0      0.00%     16.14% # attempts to use FU when none available
system.cpu1.iq.fu_full::SimdCmp                     0      0.00%     16.14% # attempts to use FU when none available
system.cpu1.iq.fu_full::SimdCvt                     0      0.00%     16.14% # attempts to use FU when none available
system.cpu1.iq.fu_full::SimdMisc                    0      0.00%     16.14% # attempts to use FU when none available
system.cpu1.iq.fu_full::SimdMult                    0      0.00%     16.14% # attempts to use FU when none available
system.cpu1.iq.fu_full::SimdMultAcc                 0      0.00%     16.14% # attempts to use FU when none available
system.cpu1.iq.fu_full::SimdShift                   0      0.00%     16.14% # attempts to use FU when none available
system.cpu1.iq.fu_full::SimdShiftAcc                0      0.00%     16.14% # attempts to use FU when none available
system.cpu1.iq.fu_full::SimdDiv                     0      0.00%     16.14% # attempts to use FU when none available
system.cpu1.iq.fu_full::SimdSqrt                    0      0.00%     16.14% # attempts to use FU when none available
system.cpu1.iq.fu_full::SimdFloatAdd                0      0.00%     16.14% # attempts to use FU when none available
system.cpu1.iq.fu_full::SimdFloatAlu                0      0.00%     16.14% # attempts to use FU when none available
system.cpu1.iq.fu_full::SimdFloatCmp                0      0.00%     16.14% # attempts to use FU when none available
system.cpu1.iq.fu_full::SimdFloatCvt                0      0.00%     16.14% # attempts to use FU when none available
system.cpu1.iq.fu_full::SimdFloatDiv                0      0.00%     16.14% # attempts to use FU when none available
system.cpu1.iq.fu_full::SimdFloatMisc               0      0.00%     16.14% # attempts to use FU when none available
system.cpu1.iq.fu_full::SimdFloatMult               0      0.00%     16.14% # attempts to use FU when none available
system.cpu1.iq.fu_full::SimdFloatMultAcc            0      0.00%     16.14% # attempts to use FU when none available
system.cpu1.iq.fu_full::SimdFloatSqrt               0      0.00%     16.14% # attempts to use FU when none available
system.cpu1.iq.fu_full::SimdReduceAdd               0      0.00%     16.14% # attempts to use FU when none available
system.cpu1.iq.fu_full::SimdReduceAlu               0      0.00%     16.14% # attempts to use FU when none available
system.cpu1.iq.fu_full::SimdReduceCmp               0      0.00%     16.14% # attempts to use FU when none available
system.cpu1.iq.fu_full::SimdFloatReduceAdd            0      0.00%     16.14% # attempts to use FU when none available
system.cpu1.iq.fu_full::SimdFloatReduceCmp            0      0.00%     16.14% # attempts to use FU when none available
system.cpu1.iq.fu_full::SimdAes                     0      0.00%     16.14% # attempts to use FU when none available
system.cpu1.iq.fu_full::SimdAesMix                  0      0.00%     16.14% # attempts to use FU when none available
system.cpu1.iq.fu_full::SimdSha1Hash                0      0.00%     16.14% # attempts to use FU when none available
system.cpu1.iq.fu_full::SimdSha1Hash2               0      0.00%     16.14% # attempts to use FU when none available
system.cpu1.iq.fu_full::SimdSha256Hash              0      0.00%     16.14% # attempts to use FU when none available
system.cpu1.iq.fu_full::SimdSha256Hash2             0      0.00%     16.14% # attempts to use FU when none available
system.cpu1.iq.fu_full::SimdShaSigma2               0      0.00%     16.14% # attempts to use FU when none available
system.cpu1.iq.fu_full::SimdShaSigma3               0      0.00%     16.14% # attempts to use FU when none available
system.cpu1.iq.fu_full::SimdPredAlu                 0      0.00%     16.14% # attempts to use FU when none available
system.cpu1.iq.fu_full::MemRead               1446103     75.27%     91.41% # attempts to use FU when none available
[...]
system.cpu1.dcache.ReadReq_accesses::total     19576905                       # number of ReadReq accesses(hits+misses)
system.cpu1.dcache.ReadReq_miss_rate::.cpu1.data     0.227754                       # miss rate for ReadReq accesses
system.cpu1.dcache.ReadReq_miss_rate::total     0.227754                       # miss rate for ReadReq accesses
system.cpu1.dcache.ReadReq_avg_miss_latency::.cpu1.data 86049.045332                       # average ReadReq miss latency
system.cpu1.dcache.ReadReq_avg_miss_latency::total 86049.045332                       # average ReadReq miss latency
system.cpu1.dcache.ReadReq_mshr_hits::.cpu1.data      2456334                       # number of ReadReq MSHR hits
system.cpu1.dcache.ReadReq_mshr_hits::total      2456334                       # number of ReadReq MSHR hits
system.cpu1.dcache.ReadReq_mshr_misses::.cpu1.data      2002388                       # number of ReadReq MSHR misses
system.cpu1.dcache.ReadReq_mshr_misses::total      2002388                       # number of ReadReq MSHR misses
system.cpu1.dcache.ReadReq_mshr_miss_latency::.cpu1.data 206598627000                       # number of ReadReq MSHR miss cycles
system.cpu1.dcache.ReadReq_mshr_miss_latency::total 206598627000                       # number of ReadReq MSHR miss cycles
system.cpu1.dcache.ReadReq_mshr_miss_rate::.cpu1.data     0.102283                       # mshr miss rate for ReadReq accesses
system.cpu1.dcache.ReadReq_mshr_miss_rate::total     0.102283                       # mshr miss rate for ReadReq accesses
system.cpu1.dcache.ReadReq_avg_mshr_miss_latency::.cpu1.data 103176.121211                       # average ReadReq mshr miss latency
system.cpu1.dcache.ReadReq_avg_mshr_miss_latency::total 103176.121211                       # average ReadReq mshr miss latency
system.cpu1.dcache.WriteReq_hits::.cpu1.data       973416                       # number of WriteReq hits
system.cpu1.dcache.WriteReq_hits::total        973416                       # number of WriteReq hits
system.cpu1.dcache.WriteReq_misses::.cpu1.data       401582                       # number of WriteReq misses
system.cpu1.dcache.WriteReq_misses::total       401582                       # number of WriteReq misses
system.cpu1.dcache.WriteReq_miss_latency::.cpu1.data  25787484797                       # number of WriteReq miss cycles
system.cpu1.dcache.WriteReq_miss_latency::total  25787484797                       # number of WriteReq miss cycles
system.cpu1.dcache.WriteReq_accesses::.cpu1.data      1374998                       # number of WriteReq accesses(hits+misses)
system.cpu1.dcache.WriteReq_accesses::total      1374998                       # number of WriteReq accesses(hits+misses)
system.cpu1.dcache.WriteReq_miss_rate::.cpu1.data     0.292060                       # miss rate for WriteReq accesses
system.cpu1.dcache.WriteReq_miss_rate::total     0.292060                       # miss rate for WriteReq accesses
system.cpu1.dcache.WriteReq_avg_miss_latency::.cpu1.data 64214.742685                       # average WriteReq miss latency
system.cpu1.dcache.WriteReq_avg_miss_latency::total 64214.742685                       # average WriteReq miss latency
system.cpu1.dcache.WriteReq_mshr_hits::.cpu1.data       359036                       # number of WriteReq MSHR hits
system.cpu1.dcache.WriteReq_mshr_hits::total       359036                       # number of WriteReq MSHR hits
system.cpu1.dcache.WriteReq_mshr_misses::.cpu1.data        42546                       # number of WriteReq MSHR misses
system.cpu1.dcache.WriteReq_mshr_misses::total        42546                       # number of WriteReq MSHR misses
system.cpu1.dcache.WriteReq_mshr_miss_latency::.cpu1.data   2455187343                       # number of WriteReq MSHR miss cycles
system.cpu1.dcache.WriteReq_mshr_miss_latency::total   2455187343                       # number of WriteReq MSHR miss cycles
system.cpu1.dcache.WriteReq_mshr_miss_rate::.cpu1.data     0.030943                       # mshr miss rate for WriteReq accesses
system.cpu1.dcache.WriteReq_mshr_miss_rate::total     0.030943                       # mshr miss rate for WriteReq accesses
system.cpu1.dcache.WriteReq_avg_mshr_miss_latency::.cpu1.data 57706.654985                       # average WriteReq mshr miss latency
system.cpu1.dcache.WriteReq_avg_mshr_miss_latency::total 57706.654985                       # average WriteReq mshr miss latency
system.cpu1.dcache.LoadLockedReq_hits::.cpu1.data          685                       # number of LoadLockedReq hits
system.cpu1.dcache.LoadLockedReq_hits::total          685                       # number of LoadLockedReq hits
system.cpu1.dcache.LoadLockedReq_misses::.cpu1.data          155                       # number of LoadLockedReq misses
system.cpu1.dcache.LoadLockedReq_misses::total          155                       # number of LoadLockedReq misses
system.cpu1.dcache.LoadLockedReq_miss_latency::.cpu1.data     12797000                       # number of LoadLockedReq miss cycles
system.cpu1.dcache.LoadLockedReq_miss_latency::total     12797000                       # number of LoadLockedReq miss cycles
system.cpu1.dcache.LoadLockedReq_accesses::.cpu1.data          840                       # number of LoadLockedReq accesses(hits+misses)
system.cpu1.dcache.LoadLockedReq_accesses::total          840                       # number of LoadLockedReq accesses(hits+misses)
system.cpu1.dcache.LoadLockedReq_miss_rate::.cpu1.data     0.184524                       # miss rate for LoadLockedReq accesses
system.cpu1.dcache.LoadLockedReq_miss_rate::total     0.184524                       # miss rate for LoadLockedReq accesses
system.cpu1.dcache.LoadLockedReq_avg_miss_latency::.cpu1.data 82561.290323                       # average LoadLockedReq miss latency
system.cpu1.dcache.LoadLockedReq_avg_miss_latency::total 82561.290323                       # average LoadLockedReq miss latency
system.cpu1.dcache.LoadLockedReq_mshr_hits::.cpu1.data           67                       # number of LoadLockedReq MSHR hits
system.cpu1.dcache.LoadLockedReq_mshr_hits::total           67                       # number of LoadLockedReq MSHR hits
system.cpu1.dcache.LoadLockedReq_mshr_misses::.cpu1.data           88                       # number of LoadLockedReq MSHR misses
system.cpu1.dcache.LoadLockedReq_mshr_misses::total           88                       # number of LoadLockedReq MSHR misses
system.cpu1.dcache.LoadLockedReq_mshr_miss_latency::.cpu1.data      6690500                       # number of LoadLockedReq MSHR miss cycles
system.cpu1.dcache.LoadLockedReq_mshr_miss_latency::total      6690500                       # number of LoadLockedReq MSHR miss cycles
system.cpu1.dcache.LoadLockedReq_mshr_miss_rate::.cpu1.data     0.104762                       # mshr miss rate for LoadLockedReq accesses
system.cpu1.dcache.LoadLockedReq_mshr_miss_rate::total     0.104762                       # mshr miss rate for LoadLockedReq accesses
system.cpu1.dcache.LoadLockedReq_avg_mshr_miss_latency::.cpu1.data 76028.409091                       # average LoadLockedReq mshr miss latency
system.cpu1.dcache.LoadLockedReq_avg_mshr_miss_latency::total 76028.409091                       # average LoadLockedReq mshr miss latency
system.cpu1.dcache.StoreCondReq_hits::.cpu1.data          573                       # number of StoreCondReq hits
system.cpu1.dcache.StoreCondReq_hits::total          573                       # number of StoreCondReq hits
system.cpu1.dcache.StoreCondReq_misses::.cpu1.data          224                       # number of StoreCondReq misses
system.cpu1.dcache.StoreCondReq_misses::total          224                       # number of StoreCondReq misses
system.cpu1.dcache.StoreCondReq_miss_latency::.cpu1.data      2047500                       # number of StoreCondReq miss cycles
system.cpu1.dcache.StoreCondReq_miss_latency::total      2047500                       # number of StoreCondReq miss cycles
system.cpu1.dcache.StoreCondReq_accesses::.cpu1.data          797                       # number of StoreCondReq accesses(hits+misses)
system.cpu1.dcache.StoreCondReq_accesses::total          797                       # number of StoreCondReq accesses(hits+misses)
system.cpu1.dcache.StoreCondReq_miss_rate::.cpu1.data     0.281054                       # miss rate for StoreCondReq accesses
system.cpu1.dcache.StoreCondReq_miss_rate::total     0.281054                       # miss rate for StoreCondReq accesses
system.cpu1.dcache.StoreCondReq_avg_miss_latency::.cpu1.data  9140.625000                       # average StoreCondReq miss latency
system.cpu1.dcache.StoreCondReq_avg_miss_latency::total  9140.625000                       # average StoreCondReq miss latency
system.cpu1.dcache.StoreCondReq_mshr_misses::.cpu1.data          224                       # number of StoreCondReq MSHR misses
system.cpu1.dcache.StoreCondReq_mshr_misses::total          224                       # number of StoreCondReq MSHR misses
system.cpu1.dcache.StoreCondReq_mshr_miss_latency::.cpu1.data      1823500                       # number of StoreCondReq MSHR miss cycles
system.cpu1.dcache.StoreCondReq_mshr_miss_latency::total      1823500                       # number of StoreCondReq MSHR miss cycles
system.cpu1.dcache.StoreCondReq_mshr_miss_rate::.cpu1.data     0.281054                       # mshr miss rate for StoreCondReq accesses
system.cpu1.dcache.StoreCondReq_mshr_miss_rate::total     0.281054                       # mshr miss rate for StoreCondReq accesses
system.cpu1.dcache.StoreCondReq_avg_mshr_miss_latency::.cpu1.data  8140.625000                       # average StoreCondReq mshr miss latency
system.cpu1.dcache.StoreCondReq_avg_mshr_miss_latency::total  8140.625000                       # average StoreCondReq mshr miss latency
system.cpu1.dcache.SwapReq_hits::.cpu1.data          308                       # number of SwapReq hits
system.cpu1.dcache.SwapReq_hits::total            308                       # number of SwapReq hits
system.cpu1.dcache.SwapReq_misses::.cpu1.data          155                       # number of SwapReq misses
system.cpu1.dcache.SwapReq_misses::total          155                       # number of SwapReq misses
system.cpu1.dcache.SwapReq_miss_latency::.cpu1.data       762000                       # number of SwapReq miss cycles
system.cpu1.dcache.SwapReq_miss_latency::total       762000                       # number of SwapReq miss cycles
system.cpu1.dcache.SwapReq_accesses::.cpu1.data          463                       # number of SwapReq accesses(hits+misses)
system.cpu1.dcache.SwapReq_accesses::total          463                       # number of SwapReq accesses(hits+misses)
system.cpu1.dcache.SwapReq_miss_rate::.cpu1.data     0.334773                       # miss rate for SwapReq accesses
system.cpu1.dcache.SwapReq_miss_rate::total     0.334773                       # miss rate for SwapReq accesses
system.cpu1.dcache.SwapReq_avg_miss_latency::.cpu1.data  4916.129032                       # average SwapReq miss latency
system.cpu1.dcache.SwapReq_avg_miss_latency::total  4916.129032                       # average SwapReq miss latency
system.cpu1.dcache.SwapReq_mshr_misses::.cpu1.data          155                       # number of SwapReq MSHR misses
system.cpu1.dcache.SwapReq_mshr_misses::total          155                       # number of SwapReq MSHR misses
system.cpu1.dcache.SwapReq_mshr_miss_latency::.cpu1.data       607000                       # number of SwapReq MSHR miss cycles
system.cpu1.dcache.SwapReq_mshr_miss_latency::total       607000                       # number of SwapReq MSHR miss cycles
system.cpu1.dcache.SwapReq_mshr_miss_rate::.cpu1.data     0.334773                       # mshr miss rate for SwapReq accesses
system.cpu1.dcache.SwapReq_mshr_miss_rate::total     0.334773                       # mshr miss rate for SwapReq accesses
system.cpu1.dcache.SwapReq_avg_mshr_miss_latency::.cpu1.data  3916.129032                       # average SwapReq mshr miss latency
system.cpu1.dcache.SwapReq_avg_mshr_miss_latency::total  3916.129032                       # average SwapReq mshr miss latency
system.cpu1.dcache.tags.pwrStateResidencyTicks::UNDEFINED 596155430000                       # Cumulative time (in ticks) in various power states
system.cpu1.dcache.tags.tagsinuse           31.980473                       # Cycle average of tags in use
system.cpu1.dcache.tags.total_refs           18146117                       # Total number of references to valid blocks.
system.cpu1.dcache.tags.sampled_refs          2044788                       # Sample count of references to valid blocks.
system.cpu1.dcache.tags.avg_refs             8.874327                       # Average number of references to valid blocks.
system.cpu1.dcache.tags.warmup_cycle                0                       # Cycle when the warmup percentage was hit.
system.cpu1.dcache.tags.occ_blocks::.cpu1.data    31.980473                       # Average occupied blocks per requestor
system.cpu1.dcache.tags.occ_percent::.cpu1.data     0.999390                       # Average percentage of cache occupancy
system.cpu1.dcache.tags.occ_percent::total     0.999390                       # Average percentage of cache occupancy
system.cpu1.dcache.tags.occ_task_id_blocks::1024           29                       # Occupied blocks per task id
system.cpu1.dcache.tags.age_task_id_blocks_1024::1           29                       # Occupied blocks per task id
system.cpu1.dcache.tags.occ_task_id_percent::1024     0.906250                       # Percentage of cache occupancy per task id
system.cpu1.dcache.tags.tag_accesses         43952767                       # Number of tag accesses
system.cpu1.dcache.tags.data_accesses        43952767                       # Number of data accesses
system.cpu_clk_domain.clock                       500                       # Clock period in ticks
system.tol2bus.pwrStateResidencyTicks::UNDEFINED 596155430000                       # Cumulative time (in ticks) in various power states
system.tol2bus.trans_dist::ReadResp          25221209                       # Transaction distribution
system.tol2bus.trans_dist::WritebackDirty       901138                       # Transaction distribution
system.tol2bus.trans_dist::WritebackClean     24825735                       # Transaction distribution
system.tol2bus.trans_dist::CleanEvict        73384228                       # Transaction distribution
system.tol2bus.trans_dist::HardPFReq         45612294                       # Transaction distribution
system.tol2bus.trans_dist::UpgradeReq            1799                       # Transaction distribution
system.tol2bus.trans_dist::SCUpgradeReq           454                       # Transaction distribution
system.tol2bus.trans_dist::UpgradeResp           2253                       # Transaction distribution
system.tol2bus.trans_dist::ReadExReq            85482                       # Transaction distribution
system.tol2bus.trans_dist::ReadExResp           85482                       # Transaction distribution
system.tol2bus.trans_dist::ReadCleanReq         17882                       # Transaction distribution
system.tol2bus.trans_dist::ReadSharedReq     25203328                       # Transaction distribution
system.tol2bus.pkt_count_system.cpu0.icache.mem_side::system.l2.cpu_side        45853                       # Packet count per connected master and slave (bytes)
system.tol2bus.pkt_count_system.cpu0.dcache.mem_side::system.l2.cpu_side     69731809                       # Packet count per connected master and slave (bytes)
system.tol2bus.pkt_count_system.cpu1.icache.mem_side::system.l2.cpu_side         7791                       # Packet count per connected master and slave (bytes)
system.tol2bus.pkt_count_system.cpu1.dcache.mem_side::system.l2.cpu_side      6131087                       # Packet count per connected master and slave (bytes)
system.tol2bus.pkt_count::total              75916540                       # Packet count per connected master and slave (bytes)
system.tol2bus.pkt_size_system.cpu0.icache.mem_side::system.l2.cpu_side      1956352                       # Cumulative packet size per connected master and slave (bytes)
system.tol2bus.pkt_size_system.cpu0.dcache.mem_side::system.l2.cpu_side   2975068416                       # Cumulative packet size per connected master and slave (bytes)
system.tol2bus.pkt_size_system.cpu1.icache.mem_side::system.l2.cpu_side       332416                       # Cumulative packet size per connected master and slave (bytes)
system.tol2bus.pkt_size_system.cpu1.dcache.mem_side::system.l2.cpu_side    261469504                       # Cumulative packet size per connected master and slave (bytes)
system.tol2bus.pkt_size::total             3238826688                       # Cumulative packet size per connected master and slave (bytes)
system.tol2bus.snoops                       119424744                       # Total snoops (count)
system.tol2bus.snoopTraffic                  27321408                       # Total snoop traffic (bytes)
system.tol2bus.snoop_fanout::samples        144738338                       # Request fanout histogram
system.tol2bus.snoop_fanout::mean            0.161828                       # Request fanout histogram
system.tol2bus.snoop_fanout::stdev           0.371796                       # Request fanout histogram
system.tol2bus.snoop_fanout::underflows             0      0.00%      0.00% # Request fanout histogram
system.tol2bus.snoop_fanout::0              121503338     83.95%     83.95% # Request fanout histogram
system.tol2bus.snoop_fanout::1               23047356     15.92%     99.87% # Request fanout histogram
system.tol2bus.snoop_fanout::2                 187644      0.13%    100.00% # Request fanout histogram
system.tol2bus.snoop_fanout::3                      0      0.00%    100.00% # Request fanout histogram
system.tol2bus.snoop_fanout::4                      0      0.00%    100.00% # Request fanout histogram
system.tol2bus.snoop_fanout::5                      0      0.00%    100.00% # Request fanout histogram
system.tol2bus.snoop_fanout::6                      0      0.00%    100.00% # Request fanout histogram
system.tol2bus.snoop_fanout::7                      0      0.00%    100.00% # Request fanout histogram
system.tol2bus.snoop_fanout::8                      0      0.00%    100.00% # Request fanout histogram
system.tol2bus.snoop_fanout::overflows              0      0.00%    100.00% # Request fanout histogram
system.tol2bus.snoop_fanout::min_value              0                       # Request fanout histogram
system.tol2bus.snoop_fanout::max_value              2                       # Request fanout histogram
system.tol2bus.snoop_fanout::total          144738338                       # Request fanout histogram
system.tol2bus.reqLayer0.occupancy        50632762481                       # Layer occupancy (ticks)
system.tol2bus.reqLayer0.utilization              8.5                       # Layer utilization (%)
system.tol2bus.respLayer1.occupancy       34869995257                       # Layer occupancy (ticks)
system.tol2bus.respLayer1.utilization             5.8                       # Layer utilization (%)
system.tol2bus.respLayer0.occupancy          22933984                       # Layer occupancy (ticks)
system.tol2bus.respLayer0.utilization             0.0                       # Layer utilization (%)
system.tol2bus.respLayer3.occupancy        3069702519                       # Layer occupancy (ticks)
system.tol2bus.respLayer3.utilization             0.5                       # Layer utilization (%)
system.tol2bus.respLayer2.occupancy           3897496                       # Layer occupancy (ticks)
system.tol2bus.respLayer2.utilization             0.0                       # Layer utilization (%)

---------- End Simulation Statistics   ----------
