
---------- Begin Simulation Statistics ----------
final_tick                               1028568907000                       # Number of ticks from beginning of simulation (restored from checkpoints and never reset)
host_inst_rate                                  58182                       # Simulator instruction rate (inst/s)
host_mem_usage                                 715184                       # Number of bytes of host memory used
host_op_rate                                    58373                       # Simulator op (including micro ops) rate (op/s)
host_seconds                                 19004.47                       # Real time elapsed on the host
host_tick_rate                               54122483                       # Simulator tick rate (ticks/s)
sim_freq                                 1000000000000                       # Frequency of simulated ticks
sim_insts                                  1105713075                       # Number of instructions simulated
sim_ops                                    1109338444                       # Number of ops (including micro ops) simulated
sim_seconds                                  1.028569                       # Number of seconds simulated
sim_ticks                                1028568907000                       # Number of ticks simulated
system.cpu0.branchPred.BTBCorrect                   0                       # Number of correct BTB predictions (this stat may not work properly.
system.cpu0.branchPred.BTBHitPct            87.482317                       # BTB Hit Percentage
system.cpu0.branchPred.BTBHits              143487236                       # Number of BTB hits
system.cpu0.branchPred.BTBLookups           164018559                       # Number of BTB lookups
system.cpu0.branchPred.RASInCorrect                 0                       # Number of incorrect RAS predictions.
system.cpu0.branchPred.condIncorrect         13211448                       # Number of conditional branches incorrect
system.cpu0.branchPred.condPredicted        224288755                       # Number of conditional branches predicted
system.cpu0.branchPred.indirectHits          18416076                       # Number of indirect target hits.
system.cpu0.branchPred.indirectLookups       18535779                       # Number of indirect predictor lookups.
system.cpu0.branchPred.indirectMisses          119703                       # Number of indirect misses.
system.cpu0.branchPred.lookups              285231472                       # Number of BP lookups
system.cpu0.branchPred.usedRAS                      0                       # Number of times the RAS was used to get a target.
system.cpu0.branchPredindirectMispredicted      1863936                       # Number of mispredicted indirect branches.
system.cpu0.commit.amos                       1811482                       # Number of atomic instructions committed
system.cpu0.commit.branchMispredicts          8932252                       # The number of times a branch was mispredicted
system.cpu0.commit.branches                 260657618                       # Number of branches committed
system.cpu0.commit.bw_lim_events             29000052                       # number cycles where commit BW limit reached
system.cpu0.commit.commitNonSpecStalls        5441404                       # The number of times commit has been forced to stall to communicate backwards
system.cpu0.commit.commitSquashedInsts       88197027                       # The number of squashed insts skipped by commit
system.cpu0.commit.committedInsts          1050644429                       # Number of instructions committed
system.cpu0.commit.committedOps            1052458425                       # Number of ops (including micro ops) committed
system.cpu0.commit.committed_per_cycle::samples   1899706635                       # Number of insts commited each cycle
system.cpu0.commit.committed_per_cycle::mean     0.554011                       # Number of insts commited each cycle
system.cpu0.commit.committed_per_cycle::stdev     1.308012                       # Number of insts commited each cycle
system.cpu0.commit.committed_per_cycle::underflows            0      0.00%      0.00% # Number of insts commited each cycle
system.cpu0.commit.committed_per_cycle::0   1380264178     72.66%     72.66% # Number of insts commited each cycle
system.cpu0.commit.committed_per_cycle::1    317513113     16.71%     89.37% # Number of insts commited each cycle
system.cpu0.commit.committed_per_cycle::2     71739174      3.78%     93.15% # Number of insts commited each cycle
system.cpu0.commit.committed_per_cycle::3     67915448      3.58%     96.72% # Number of insts commited each cycle
system.cpu0.commit.committed_per_cycle::4     19981062      1.05%     97.77% # Number of insts commited each cycle
system.cpu0.commit.committed_per_cycle::5      7423015      0.39%     98.16% # Number of insts commited each cycle
system.cpu0.commit.committed_per_cycle::6      2413270      0.13%     98.29% # Number of insts commited each cycle
system.cpu0.commit.committed_per_cycle::7      3457323      0.18%     98.47% # Number of insts commited each cycle
system.cpu0.commit.committed_per_cycle::8     29000052      1.53%    100.00% # Number of insts commited each cycle
system.cpu0.commit.committed_per_cycle::overflows            0      0.00%    100.00% # Number of insts commited each cycle
system.cpu0.commit.committed_per_cycle::min_value            0                       # Number of insts commited each cycle
system.cpu0.commit.committed_per_cycle::max_value            8                       # Number of insts commited each cycle
system.cpu0.commit.committed_per_cycle::total   1899706635                       # Number of insts commited each cycle
system.cpu0.commit.fp_insts                        46                       # Number of committed floating point instructions.
system.cpu0.commit.function_calls            20855974                       # Number of function calls committed.
system.cpu0.commit.int_insts               1015845099                       # Number of committed integer instructions.
system.cpu0.commit.loads                    326205358                       # Number of loads committed
system.cpu0.commit.membars                    3625353                       # Number of memory barriers committed
system.cpu0.commit.op_class_0::No_OpClass      3625359      0.34%      0.34% # Class of committed instruction
system.cpu0.commit.op_class_0::IntAlu       583829004     55.47%     55.82% # Class of committed instruction
system.cpu0.commit.op_class_0::IntMult        8030359      0.76%     56.58% # Class of committed instruction
system.cpu0.commit.op_class_0::IntDiv         1811037      0.17%     56.75% # Class of committed instruction
system.cpu0.commit.op_class_0::FloatAdd             0      0.00%     56.75% # Class of committed instruction
system.cpu0.commit.op_class_0::FloatCmp             4      0.00%     56.75% # Class of committed instruction
system.cpu0.commit.op_class_0::FloatCvt            12      0.00%     56.75% # Class of committed instruction
system.cpu0.commit.op_class_0::FloatMult            0      0.00%     56.75% # Class of committed instruction
system.cpu0.commit.op_class_0::FloatMultAcc            0      0.00%     56.75% # Class of committed instruction
system.cpu0.commit.op_class_0::FloatDiv             2      0.00%     56.75% # Class of committed instruction
system.cpu0.commit.op_class_0::FloatMisc            4      0.00%     56.75% # Class of committed instruction
system.cpu0.commit.op_class_0::FloatSqrt            0      0.00%     56.75% # Class of committed instruction
system.cpu0.commit.op_class_0::SimdAdd              0      0.00%     56.75% # Class of committed instruction
system.cpu0.commit.op_class_0::SimdAddAcc            0      0.00%     56.75% # Class of committed instruction
system.cpu0.commit.op_class_0::SimdAlu              0      0.00%     56.75% # Class of committed instruction
system.cpu0.commit.op_class_0::SimdCmp              0      0.00%     56.75% # Class of committed instruction
system.cpu0.commit.op_class_0::SimdCvt              0      0.00%     56.75% # Class of committed instruction
system.cpu0.commit.op_class_0::SimdMisc             0      0.00%     56.75% # Class of committed instruction
system.cpu0.commit.op_class_0::SimdMult             0      0.00%     56.75% # Class of committed instruction
system.cpu0.commit.op_class_0::SimdMultAcc            0      0.00%     56.75% # Class of committed instruction
system.cpu0.commit.op_class_0::SimdShift            0      0.00%     56.75% # Class of committed instruction
system.cpu0.commit.op_class_0::SimdShiftAcc            0      0.00%     56.75% # Class of committed instruction
system.cpu0.commit.op_class_0::SimdDiv              0      0.00%     56.75% # Class of committed instruction
system.cpu0.commit.op_class_0::SimdSqrt             0      0.00%     56.75% # Class of committed instruction
system.cpu0.commit.op_class_0::SimdFloatAdd            0      0.00%     56.75% # Class of committed instruction
system.cpu0.commit.op_class_0::SimdFloatAlu            0      0.00%     56.75% # Class of committed instruction
system.cpu0.commit.op_class_0::SimdFloatCmp            0      0.00%     56.75% # Class of committed instruction
system.cpu0.commit.op_class_0::SimdFloatCvt            0      0.00%     56.75% # Class of committed instruction
system.cpu0.commit.op_class_0::SimdFloatDiv            0      0.00%     56.75% # Class of committed instruction
system.cpu0.commit.op_class_0::SimdFloatMisc            0      0.00%     56.75% # Class of committed instruction
system.cpu0.commit.op_class_0::SimdFloatMult            0      0.00%     56.75% # Class of committed instruction
system.cpu0.commit.op_class_0::SimdFloatMultAcc            0      0.00%     56.75% # Class of committed instruction
system.cpu0.commit.op_class_0::SimdFloatSqrt            0      0.00%     56.75% # Class of committed instruction
system.cpu0.commit.op_class_0::SimdReduceAdd            0      0.00%     56.75% # Class of committed instruction
system.cpu0.commit.op_class_0::SimdReduceAlu            0      0.00%     56.75% # Class of committed instruction
system.cpu0.commit.op_class_0::SimdReduceCmp            0      0.00%     56.75% # Class of committed instruction
system.cpu0.commit.op_class_0::SimdFloatReduceAdd            0      0.00%     56.75% # Class of committed instruction
system.cpu0.commit.op_class_0::SimdFloatReduceCmp            0      0.00%     56.75% # Class of committed instruction
system.cpu0.commit.op_class_0::SimdAes              0      0.00%     56.75% # Class of committed instruction
system.cpu0.commit.op_class_0::SimdAesMix            0      0.00%     56.75% # Class of committed instruction
system.cpu0.commit.op_class_0::SimdSha1Hash            0      0.00%     56.75% # Class of committed instruction
system.cpu0.commit.op_class_0::SimdSha1Hash2            0      0.00%     56.75% # Class of committed instruction
system.cpu0.commit.op_class_0::SimdSha256Hash            0      0.00%     56.75% # Class of committed instruction
system.cpu0.commit.op_class_0::SimdSha256Hash2            0      0.00%     56.75% # Class of committed instruction
system.cpu0.commit.op_class_0::SimdShaSigma2            0      0.00%     56.75% # Class of committed instruction
system.cpu0.commit.op_class_0::SimdShaSigma3            0      0.00%     56.75% # Class of committed instruction
system.cpu0.commit.op_class_0::SimdPredAlu            0      0.00%     56.75% # Class of committed instruction
system.cpu0.commit.op_class_0::MemRead      328016832     31.17%     87.92% # Class of committed instruction
system.cpu0.commit.op_class_0::MemWrite     127145788     12.08%    100.00% # Class of committed instruction
system.cpu0.commit.op_class_0::FloatMemRead            8      0.00%    100.00% # Class of committed instruction
system.cpu0.commit.op_class_0::FloatMemWrite           16      0.00%    100.00% # Class of committed instruction
system.cpu0.commit.op_class_0::IprAccess            0      0.00%    100.00% # Class of committed instruction
system.cpu0.commit.op_class_0::InstPrefetch            0      0.00%    100.00% # Class of committed instruction
system.cpu0.commit.op_class_0::total       1052458425                       # Class of committed instruction
system.cpu0.commit.refs                     455162644                       # Number of memory references committed
system.cpu0.commit.swp_count                        0                       # Number of s/w prefetches committed
system.cpu0.commit.vec_insts                        0                       # Number of committed Vector instructions.
system.cpu0.committedInsts                 1050644429                       # Number of Instructions Simulated
system.cpu0.committedOps                   1052458425                       # Number of Ops (including micro ops) Simulated
system.cpu0.cpi                              1.954503                       # CPI: Cycles Per Instruction
system.cpu0.cpi_total                        1.954503                       # CPI: Total CPI of All Threads
system.cpu0.decode.BlockedCycles            293642411                       # Number of cycles decode is blocked
system.cpu0.decode.BranchMispred              4287593                       # Number of times decode detected a branch misprediction
system.cpu0.decode.BranchResolved           142075242                       # Number of times decode resolved a branch
system.cpu0.decode.DecodedInsts            1166552297                       # Number of instructions handled by decode
system.cpu0.decode.IdleCycles               805085990                       # Number of cycles decode is idle
system.cpu0.decode.RunCycles                803550479                       # Number of cycles decode is running
system.cpu0.decode.SquashCycles               8943431                       # Number of cycles decode is squashing
system.cpu0.decode.SquashedInsts              7843756                       # Number of squashed instructions handled by decode
system.cpu0.decode.UnblockCycles              5370340                       # Number of cycles decode is unblocking
system.cpu0.dtb.accesses                            0                       # DTB accesses
system.cpu0.dtb.hits                                0                       # DTB hits
system.cpu0.dtb.misses                              0                       # DTB misses
system.cpu0.dtb.read_accesses                       0                       # DTB read accesses
system.cpu0.dtb.read_hits                           0                       # DTB read hits
system.cpu0.dtb.read_misses                         0                       # DTB read misses
system.cpu0.dtb.write_accesses                      0                       # DTB write accesses
system.cpu0.dtb.write_hits                          0                       # DTB write hits
system.cpu0.dtb.write_misses                        0                       # DTB write misses
system.cpu0.fetch.Branches                  285231472                       # Number of branches that fetch encountered
system.cpu0.fetch.CacheLines                204714051                       # Number of cache lines fetched
system.cpu0.fetch.Cycles                   1106367462                       # Number of cycles fetch has run and was not squashing or blocked
system.cpu0.fetch.IcacheSquashes              5625075                       # Number of outstanding Icache misses that were squashed
system.cpu0.fetch.IcacheWaitRetryStallCycles          175                       # Number of stall cycles due to full MSHR
system.cpu0.fetch.Insts                    1190947327                       # Number of instructions fetch has processed
system.cpu0.fetch.MiscStallCycles                  18                       # Number of cycles fetch has spent waiting on interrupts, or bad addresses, or out of MSHRs
system.cpu0.fetch.PendingTrapStallCycles            6                       # Number of stall cycles due to pending traps
system.cpu0.fetch.SquashCycles               26445256                       # Number of cycles fetch has spent squashing
system.cpu0.fetch.branchRate                 0.138901                       # Number of branch fetches per cycle
system.cpu0.fetch.icacheStallCycles         797002362                       # Number of cycles fetch is stalled on an Icache miss
system.cpu0.fetch.predictedBranches         161903312                       # Number of branches that fetch has predicted taken
system.cpu0.fetch.rate                       0.579963                       # Number of inst fetches per cycle
system.cpu0.fetch.rateDist::samples        1916592651                       # Number of instructions fetched each cycle (Total)
system.cpu0.fetch.rateDist::mean             0.623947                       # Number of instructions fetched each cycle (Total)
system.cpu0.fetch.rateDist::stdev            0.908303                       # Number of instructions fetched each cycle (Total)
system.cpu0.fetch.rateDist::underflows              0      0.00%      0.00% # Number of instructions fetched each cycle (Total)
system.cpu0.fetch.rateDist::0              1074965943     56.09%     56.09% # Number of instructions fetched each cycle (Total)
system.cpu0.fetch.rateDist::1               617864999     32.24%     88.33% # Number of instructions fetched each cycle (Total)
system.cpu0.fetch.rateDist::2               134462411      7.02%     95.34% # Number of instructions fetched each cycle (Total)
system.cpu0.fetch.rateDist::3                69581769      3.63%     98.97% # Number of instructions fetched each cycle (Total)
system.cpu0.fetch.rateDist::4                 9154415      0.48%     99.45% # Number of instructions fetched each cycle (Total)
system.cpu0.fetch.rateDist::5                 5329889      0.28%     99.73% # Number of instructions fetched each cycle (Total)
system.cpu0.fetch.rateDist::6                 1499225      0.08%     99.81% # Number of instructions fetched each cycle (Total)
system.cpu0.fetch.rateDist::7                 1816638      0.09%     99.90% # Number of instructions fetched each cycle (Total)
system.cpu0.fetch.rateDist::8                 1917362      0.10%    100.00% # Number of instructions fetched each cycle (Total)
system.cpu0.fetch.rateDist::overflows               0      0.00%    100.00% # Number of instructions fetched each cycle (Total)
system.cpu0.fetch.rateDist::min_value               0                       # Number of instructions fetched each cycle (Total)
system.cpu0.fetch.rateDist::max_value               8                       # Number of instructions fetched each cycle (Total)
system.cpu0.fetch.rateDist::total          1916592651                       # Number of instructions fetched each cycle (Total)
system.cpu0.fp_regfile_reads                       40                       # number of floating regfile reads
system.cpu0.fp_regfile_writes                      46                       # number of floating regfile writes
system.cpu0.idleCycles                      136894708                       # Total number of cycles that the CPU has spent unscheduled due to idling
system.cpu0.iew.branchMispredicts             9027834                       # Number of branch mispredicts detected at execute
system.cpu0.iew.exec_branches               269202059                       # Number of branches executed
system.cpu0.iew.exec_nop                            0                       # number of nop insts executed
system.cpu0.iew.exec_rate                    0.537301                       # Inst execution rate
system.cpu0.iew.exec_refs                   482638228                       # number of memory reference insts executed
system.cpu0.iew.exec_stores                 133724561                       # Number of stores executed
system.cpu0.iew.exec_swp                            0                       # number of swp insts executed
system.cpu0.iew.iewBlockCycles              248443425                       # Number of cycles IEW is blocking
system.cpu0.iew.iewDispLoadInsts            358609899                       # Number of dispatched load instructions
system.cpu0.iew.iewDispNonSpecInsts           3564805                       # Number of dispatched non-speculative instructions
system.cpu0.iew.iewDispSquashedInsts          4811361                       # Number of squashed instructions skipped by dispatch
system.cpu0.iew.iewDispStoreInsts           139851867                       # Number of dispatched store instructions
system.cpu0.iew.iewDispatchedInsts         1140640327                       # Number of instructions dispatched to IQ
system.cpu0.iew.iewExecLoadInsts            348913667                       # Number of load instructions executed
system.cpu0.iew.iewExecSquashedInsts          8485444                       # Number of squashed instructions skipped in execute
system.cpu0.iew.iewExecutedInsts           1103340827                       # Number of executed instructions
system.cpu0.iew.iewIQFullEvents               2013301                       # Number of times the IQ has become full, causing a stall
system.cpu0.iew.iewIdleCycles                       0                       # Number of cycles IEW is idle
system.cpu0.iew.iewLSQFullEvents              2525716                       # Number of times the LSQ has become full, causing a stall
system.cpu0.iew.iewSquashCycles               8943431                       # Number of cycles IEW is squashing
system.cpu0.iew.iewUnblockCycles              6553938                       # Number of cycles IEW is unblocking
system.cpu0.iew.lsq.thread0.blockedLoads            0                       # Number of blocked loads due to partial load-store forwarding
system.cpu0.iew.lsq.thread0.cacheBlocked        84153                       # Number of times an access to memory failed due to the cache being blocked
system.cpu0.iew.lsq.thread0.forwLoads        15778237                       # Number of loads that had data forwarded from stores
system.cpu0.iew.lsq.thread0.ignoredResponses        44918                       # Number of memory responses ignored because the instruction is squashed
system.cpu0.iew.lsq.thread0.invAddrLoads            0                       # Number of loads ignored due to an invalid address
system.cpu0.iew.lsq.thread0.invAddrSwpfs            0                       # Number of software prefetches ignored due to an invalid address
system.cpu0.iew.lsq.thread0.memOrderViolation        12513                       # Number of memory ordering violations
system.cpu0.iew.lsq.thread0.rescheduledLoads      4256419                       # Number of loads that were rescheduled
system.cpu0.iew.lsq.thread0.squashedLoads     32404541                       # Number of loads squashed
system.cpu0.iew.lsq.thread0.squashedStores     10894581                       # Number of stores squashed
system.cpu0.iew.memOrderViolationEvents         12513                       # Number of memory order violations
system.cpu0.iew.predictedNotTakenIncorrect      1146562                       # Number of branches that were predicted not taken incorrectly
system.cpu0.iew.predictedTakenIncorrect       7881272                       # Number of branches that were predicted taken incorrectly
system.cpu0.iew.wb_consumers                454180500                       # num instructions consuming a value
system.cpu0.iew.wb_count                   1093685306                       # cumulative count of insts written-back
system.cpu0.iew.wb_fanout                    0.884672                       # average fanout of values written-back
system.cpu0.iew.wb_producers                401800570                       # num instructions producing a value
system.cpu0.iew.wb_rate                      0.532599                       # insts written-back per cycle
system.cpu0.iew.wb_sent                    1093755797                       # cumulative count of insts sent to commit
system.cpu0.int_regfile_reads              1349203810                       # number of integer regfile reads
system.cpu0.int_regfile_writes              698801858                       # number of integer regfile writes
system.cpu0.ipc                              0.511639                       # IPC: Instructions Per Cycle
system.cpu0.ipc_total                        0.511639                       # IPC: Total IPC of All Threads
system.cpu0.iq.FU_type_0::No_OpClass          3626895      0.33%      0.33% # Type of FU issued
system.cpu0.iq.FU_type_0::IntAlu            611113377     54.96%     55.29% # Type of FU issued
system.cpu0.iq.FU_type_0::IntMult             8034396      0.72%     56.01% # Type of FU issued
system.cpu0.iq.FU_type_0::IntDiv              1811544      0.16%     56.18% # Type of FU issued
system.cpu0.iq.FU_type_0::FloatAdd                  0      0.00%     56.18% # Type of FU issued
system.cpu0.iq.FU_type_0::FloatCmp                  4      0.00%     56.18% # Type of FU issued
system.cpu0.iq.FU_type_0::FloatCvt                 12      0.00%     56.18% # Type of FU issued
system.cpu0.iq.FU_type_0::FloatMult                 0      0.00%     56.18% # Type of FU issued
system.cpu0.iq.FU_type_0::FloatMultAcc              0      0.00%     56.18% # Type of FU issued
system.cpu0.iq.FU_type_0::FloatDiv                  2      0.00%     56.18% # Type of FU issued
system.cpu0.iq.FU_type_0::FloatMisc                 4      0.00%     56.18% # Type of FU issued
system.cpu0.iq.FU_type_0::FloatSqrt                 0      0.00%     56.18% # Type of FU issued
system.cpu0.iq.FU_type_0::SimdAdd                   0      0.00%     56.18% # Type of FU issued
system.cpu0.iq.FU_type_0::SimdAddAcc                0      0.00%     56.18% # Type of FU issued
system.cpu0.iq.FU_type_0::SimdAlu                   0      0.00%     56.18% # Type of FU issued
system.cpu0.iq.FU_type_0::SimdCmp                   0      0.00%     56.18% # Type of FU issued
system.cpu0.iq.FU_type_0::SimdCvt                   0      0.00%     56.18% # Type of FU issued
system.cpu0.iq.FU_type_0::SimdMisc                  0      0.00%     56.18% # Type of FU issued
system.cpu0.iq.FU_type_0::SimdMult                  0      0.00%     56.18% # Type of FU issued
system.cpu0.iq.FU_type_0::SimdMultAcc               0      0.00%     56.18% # Type of FU issued
system.cpu0.iq.FU_type_0::SimdShift                 0      0.00%     56.18% # Type of FU issued
system.cpu0.iq.FU_type_0::SimdShiftAcc              0      0.00%     56.18% # Type of FU issued
system.cpu0.iq.FU_type_0::SimdDiv                   0      0.00%     56.18% # Type of FU issued
system.cpu0.iq.FU_type_0::SimdSqrt                  0      0.00%     56.18% # Type of FU issued
system.cpu0.iq.FU_type_0::SimdFloatAdd              0      0.00%     56.18% # Type of FU issued
system.cpu0.iq.FU_type_0::SimdFloatAlu              0      0.00%     56.18% # Type of FU issued
system.cpu0.iq.FU_type_0::SimdFloatCmp              0      0.00%     56.18% # Type of FU issued
system.cpu0.iq.FU_type_0::SimdFloatCvt              0      0.00%     56.18% # Type of FU issued
system.cpu0.iq.FU_type_0::SimdFloatDiv              0      0.00%     56.18% # Type of FU issued
system.cpu0.iq.FU_type_0::SimdFloatMisc             0      0.00%     56.18% # Type of FU issued
system.cpu0.iq.FU_type_0::SimdFloatMult             0      0.00%     56.18% # Type of FU issued
system.cpu0.iq.FU_type_0::SimdFloatMultAcc            0      0.00%     56.18% # Type of FU issued
system.cpu0.iq.FU_type_0::SimdFloatSqrt             0      0.00%     56.18% # Type of FU issued
system.cpu0.iq.FU_type_0::SimdReduceAdd             0      0.00%     56.18% # Type of FU issued
system.cpu0.iq.FU_type_0::SimdReduceAlu             0      0.00%     56.18% # Type of FU issued
system.cpu0.iq.FU_type_0::SimdReduceCmp             0      0.00%     56.18% # Type of FU issued
system.cpu0.iq.FU_type_0::SimdFloatReduceAdd            0      0.00%     56.18% # Type of FU issued
system.cpu0.iq.FU_type_0::SimdFloatReduceCmp            0      0.00%     56.18% # Type of FU issued
system.cpu0.iq.FU_type_0::SimdAes                   0      0.00%     56.18% # Type of FU issued
system.cpu0.iq.FU_type_0::SimdAesMix                0      0.00%     56.18% # Type of FU issued
system.cpu0.iq.FU_type_0::SimdSha1Hash              0      0.00%     56.18% # Type of FU issued
system.cpu0.iq.FU_type_0::SimdSha1Hash2             0      0.00%     56.18% # Type of FU issued
system.cpu0.iq.FU_type_0::SimdSha256Hash            0      0.00%     56.18% # Type of FU issued
system.cpu0.iq.FU_type_0::SimdSha256Hash2            0      0.00%     56.18% # Type of FU issued
system.cpu0.iq.FU_type_0::SimdShaSigma2             0      0.00%     56.18% # Type of FU issued
system.cpu0.iq.FU_type_0::SimdShaSigma3             0      0.00%     56.18% # Type of FU issued
system.cpu0.iq.FU_type_0::SimdPredAlu               0      0.00%     56.18% # Type of FU issued
system.cpu0.iq.FU_type_0::MemRead           353681678     31.81%     87.99% # Type of FU issued
system.cpu0.iq.FU_type_0::MemWrite          133558295     12.01%    100.00% # Type of FU issued
system.cpu0.iq.FU_type_0::FloatMemRead             49      0.00%    100.00% # Type of FU issued
system.cpu0.iq.FU_type_0::FloatMemWrite            16      0.00%    100.00% # Type of FU issued
system.cpu0.iq.FU_type_0::IprAccess                 0      0.00%    100.00% # Type of FU issued
system.cpu0.iq.FU_type_0::InstPrefetch              0      0.00%    100.00% # Type of FU issued
system.cpu0.iq.FU_type_0::total            1111826272                       # Type of FU issued
system.cpu0.iq.fp_alu_accesses                     89                       # Number of floating point alu accesses
system.cpu0.iq.fp_inst_queue_reads                176                       # Number of floating instruction queue reads
system.cpu0.iq.fp_inst_queue_wakeup_accesses           70                       # Number of floating instruction queue wakeup accesses
system.cpu0.iq.fp_inst_queue_writes               256                       # Number of floating instruction queue writes
system.cpu0.iq.fu_busy_cnt                    2070506                       # FU busy when requested
system.cpu0.iq.fu_busy_rate                  0.001862                       # FU busy rate (busy events/executed inst)
system.cpu0.iq.fu_full::No_OpClass                  0      0.00%      0.00% # attempts to use FU when none available
system.cpu0.iq.fu_full::IntAlu                 368179     17.78%     17.78% # attempts to use FU when none available
system.cpu0.iq.fu_full::IntMult                     0      0.00%     17.78% # attempts to use FU when none available
system.cpu0.iq.fu_full::IntDiv                      0      0.00%     17.78% # attempts to use FU when none available
system.cpu0.iq.fu_full::FloatAdd                    0      0.00%     17.78% # attempts to use FU when none available
system.cpu0.iq.fu_full::FloatCmp                    0      0.00%     17.78% # attempts to use FU when none available
system.cpu0.iq.fu_full::FloatCvt                    0      0.00%     17.78% # attempts to use FU when none available
system.cpu0.iq.fu_full::FloatMult                   0      0.00%     17.78% # attempts to use FU when none available
system.cpu0.iq.fu_full::FloatMultAcc                0      0.00%     17.78% # attempts to use FU when none available
system.cpu0.iq.fu_full::FloatDiv                    0      0.00%     17.78% # attempts to use FU when none available
system.cpu0.iq.fu_full::FloatMisc                   0      0.00%     17.78% # attempts to use FU when none available
system.cpu0.iq.fu_full::FloatSqrt                   0      0.00%     17.78% # attempts to use FU when none available
system.cpu0.iq.fu_full::SimdAdd                     0      0.00%     17.78% # attempts to use FU when none available
system.cpu0.iq.fu_full::SimdAddAcc                  0      0.00%     17.78% # attempts to use FU when none available
system.cpu0.iq.fu_full::SimdAlu                     0      0.00%     17.78% # attempts to use FU when none available
system.cpu0.iq.fu_full::SimdCmp                     0      0.00%     17.78% # attempts to use FU when none available
system.cpu0.iq.fu_full::SimdCvt                     0      0.00%     17.78% # attempts to use FU when none available
system.cpu0.iq.fu_full::SimdMisc                    0      0.00%     17.78% # attempts to use FU when none available
system.cpu0.iq.fu_full::SimdMult                    0      0.00%     17.78% # attempts to use FU when none available
system.cpu0.iq.fu_full::SimdMultAcc                 0      0.00%     17.78% # attempts to use FU when none available
system.cpu0.iq.fu_full::SimdShift                   0      0.00%     17.78% # attempts to use FU when none available
system.cpu0.iq.fu_full::SimdShiftAcc                0      0.00%     17.78% # attempts to use FU when none available
system.cpu0.iq.fu_full::SimdDiv                     0      0.00%     17.78% # attempts to use FU when none available
system.cpu0.iq.fu_full::SimdSqrt                    0      0.00%     17.78% # attempts to use FU when none available
system.cpu0.iq.fu_full::SimdFloatAdd                0      0.00%     17.78% # attempts to use FU when none available
system.cpu0.iq.fu_full::SimdFloatAlu                0      0.00%     17.78% # attempts to use FU when none available
system.cpu0.iq.fu_full::SimdFloatCmp                0      0.00%     17.78% # attempts to use FU when none available
system.cpu0.iq.fu_full::SimdFloatCvt                0      0.00%     17.78% # attempts to use FU when none available
system.cpu0.iq.fu_full::SimdFloatDiv                0      0.00%     17.78% # attempts to use FU when none available
system.cpu0.iq.fu_full::SimdFloatMisc               0      0.00%     17.78% # attempts to use FU when none available
system.cpu0.iq.fu_full::SimdFloatMult               0      0.00%     17.78% # attempts to use FU when none available
system.cpu0.iq.fu_full::SimdFloatMultAcc            0      0.00%     17.78% # attempts to use FU when none available
system.cpu0.iq.fu_full::SimdFloatSqrt               0      0.00%     17.78% # attempts to use FU when none available
system.cpu0.iq.fu_full::SimdReduceAdd               0      0.00%     17.78% # attempts to use FU when none available
system.cpu0.iq.fu_full::SimdReduceAlu               0      0.00%     17.78% # attempts to use FU when none available
system.cpu0.iq.fu_full::SimdReduceCmp               0      0.00%     17.78% # attempts to use FU when none available
system.cpu0.iq.fu_full::SimdFloatReduceAdd            0      0.00%     17.78% # attempts to use FU when none available
system.cpu0.iq.fu_full::SimdFloatReduceCmp            0      0.00%     17.78% # attempts to use FU when none available
system.cpu0.iq.fu_full::SimdAes                     0      0.00%     17.78% # attempts to use FU when none available
system.cpu0.iq.fu_full::SimdAesMix                  0      0.00%     17.78% # attempts to use FU when none available
system.cpu0.iq.fu_full::SimdSha1Hash                0      0.00%     17.78% # attempts to use FU when none available
system.cpu0.iq.fu_full::SimdSha1Hash2               0      0.00%     17.78% # attempts to use FU when none available
system.cpu0.iq.fu_full::SimdSha256Hash              0      0.00%     17.78% # attempts to use FU when none available
system.cpu0.iq.fu_full::SimdSha256Hash2             0      0.00%     17.78% # attempts to use FU when none available
system.cpu0.iq.fu_full::SimdShaSigma2               0      0.00%     17.78% # attempts to use FU when none available
system.cpu0.iq.fu_full::SimdShaSigma3               0      0.00%     17.78% # attempts to use FU when none available
system.cpu0.iq.fu_full::SimdPredAlu                 0      0.00%     17.78% # attempts to use FU when none available
system.cpu0.iq.fu_full::MemRead               1544862     74.61%     92.39% # attempts to use FU when none available
system.cpu0.iq.fu_full::MemWrite               157463      7.61%    100.00% # attempts to use FU when none available
system.cpu0.iq.fu_full::FloatMemRead                0      0.00%    100.00% # attempts to use FU when none available
system.cpu0.iq.fu_full::FloatMemWrite               2      0.00%    100.00% # attempts to use FU when none available
system.cpu0.iq.fu_full::IprAccess                   0      0.00%    100.00% # attempts to use FU when none available
system.cpu0.iq.fu_full::InstPrefetch                0      0.00%    100.00% # attempts to use FU when none available
system.cpu0.iq.int_alu_accesses            1110269794                       # Number of integer alu accesses
system.cpu0.iq.int_inst_queue_reads        4142425118                       # Number of integer instruction queue reads
system.cpu0.iq.int_inst_queue_wakeup_accesses   1093685236                       # Number of integer instruction queue wakeup accesses
system.cpu0.iq.int_inst_queue_writes       1228833696                       # Number of integer instruction queue writes
system.cpu0.iq.iqInstsAdded                1129952839                       # Number of instructions added to the IQ (excludes non-spec)
system.cpu0.iq.iqInstsIssued               1111826272                       # Number of instructions issued
system.cpu0.iq.iqNonSpecInstsAdded           10687488                       # Number of non-speculative instructions added to the IQ
system.cpu0.iq.iqSquashedInstsExamined       88181898                       # Number of squashed instructions iterated over during squash; mainly for profiling
system.cpu0.iq.iqSquashedInstsIssued           109594                       # Number of squashed instructions issued
system.cpu0.iq.iqSquashedNonSpecRemoved       5246084                       # Number of squashed non-spec instructions that were removed
system.cpu0.iq.iqSquashedOperandsExamined     48323489                       # Number of squashed operands that are examined and possibly removed from graph
system.cpu0.iq.issued_per_cycle::samples   1916592651                       # Number of insts issued each cycle
system.cpu0.iq.issued_per_cycle::mean        0.580106                       # Number of insts issued each cycle
system.cpu0.iq.issued_per_cycle::stdev       0.800408                       # Number of insts issued each cycle
system.cpu0.iq.issued_per_cycle::underflows            0      0.00%      0.00% # Number of insts issued each cycle
system.cpu0.iq.issued_per_cycle::0         1106407183     57.73%     57.73% # Number of insts issued each cycle
system.cpu0.iq.issued_per_cycle::1          565810702     29.52%     87.25% # Number of insts issued each cycle
system.cpu0.iq.issued_per_cycle::2          201590685     10.52%     97.77% # Number of insts issued each cycle
system.cpu0.iq.issued_per_cycle::3           33231831      1.73%     99.50% # Number of insts issued each cycle
system.cpu0.iq.issued_per_cycle::4            6222266      0.32%     99.83% # Number of insts issued each cycle
system.cpu0.iq.issued_per_cycle::5            2207447      0.12%     99.94% # Number of insts issued each cycle
system.cpu0.iq.issued_per_cycle::6             761200      0.04%     99.98% # Number of insts issued each cycle
system.cpu0.iq.issued_per_cycle::7             245488      0.01%     99.99% # Number of insts issued each cycle
system.cpu0.iq.issued_per_cycle::8             115849      0.01%    100.00% # Number of insts issued each cycle
system.cpu0.iq.issued_per_cycle::overflows            0      0.00%    100.00% # Number of insts issued each cycle
system.cpu0.iq.issued_per_cycle::min_value            0                       # Number of insts issued each cycle
system.cpu0.iq.issued_per_cycle::max_value            8                       # Number of insts issued each cycle
system.cpu0.iq.issued_per_cycle::total     1916592651                       # Number of insts issued each cycle
system.cpu0.iq.rate                          0.541433                       # Inst issue rate
system.cpu0.iq.vec_alu_accesses                     0                       # Number of vector alu accesses
system.cpu0.iq.vec_inst_queue_reads                 0                       # Number of vector instruction queue reads
system.cpu0.iq.vec_inst_queue_wakeup_accesses            0                       # Number of vector instruction queue wakeup accesses
system.cpu0.iq.vec_inst_queue_writes                0                       # Number of vector instruction queue writes
system.cpu0.itb.accesses                            0                       # DTB accesses
system.cpu0.itb.hits                                0                       # DTB hits
system.cpu0.itb.misses                              0                       # DTB misses
system.cpu0.itb.read_accesses                       0                       # DTB read accesses
system.cpu0.itb.read_hits                           0                       # DTB read hits
system.cpu0.itb.read_misses                         0                       # DTB read misses
system.cpu0.itb.write_accesses                      0                       # DTB write accesses
system.cpu0.itb.write_hits                          0                       # DTB write hits
system.cpu0.itb.write_misses                        0                       # DTB write misses
system.cpu0.memDep0.conflictingLoads         26074281                       # Number of conflicting loads.
system.cpu0.memDep0.conflictingStores         4560557                       # Number of conflicting stores.
system.cpu0.memDep0.insertedLoads           358609899                       # Number of loads inserted to the mem dependence unit.
system.cpu0.memDep0.insertedStores          139851867                       # Number of stores inserted to the mem dependence unit.
system.cpu0.misc_regfile_reads                   1508                       # number of misc regfile reads
system.cpu0.misc_regfile_writes                    22                       # number of misc regfile writes
system.cpu0.numCycles                      2053487359                       # number of cpu cycles simulated
system.cpu0.numWorkItemsCompleted                   0                       # number of work items this cpu completed
system.cpu0.numWorkItemsStarted                     0                       # number of work items this cpu started
system.cpu0.quiesceCycles                     3651032                       # Total number of cycles that CPU has spent quiesced or waiting for an interrupt
system.cpu0.rename.BlockCycles              266310126                       # Number of cycles rename is blocking
system.cpu0.rename.CommittedMaps            670543957                       # Number of HB maps that are committed
system.cpu0.rename.IQFullEvents              10399414                       # Number of times rename has blocked due to IQ full
system.cpu0.rename.IdleCycles               816465057                       # Number of cycles rename is idle
system.cpu0.rename.LQFullEvents               7007055                       # Number of times rename has blocked due to LQ full
system.cpu0.rename.ROBFullEvents                36550                       # Number of times rename has blocked due to ROB full
system.cpu0.rename.RenameLookups           1411494361                       # Number of register rename lookups that rename has made
system.cpu0.rename.RenamedInsts            1154696602                       # Number of instructions processed by rename
system.cpu0.rename.RenamedOperands          741083858                       # Number of destination operands rename has renamed
system.cpu0.rename.RunCycles                795911712                       # Number of cycles rename is running
system.cpu0.rename.SQFullEvents              10290947                       # Number of times rename has blocked due to SQ full
system.cpu0.rename.SquashCycles               8943431                       # Number of cycles rename is squashing
system.cpu0.rename.UnblockCycles             28825285                       # Number of cycles rename is unblocking
system.cpu0.rename.UndoneMaps                70539893                       # Number of HB maps that are undone due to squashing
system.cpu0.rename.fp_rename_lookups               40                       # Number of floating rename lookups
system.cpu0.rename.int_rename_lookups      1411494321                       # Number of integer rename lookups
system.cpu0.rename.serializeStallCycles        137040                       # count of cycles rename stalled for serializing inst
system.cpu0.rename.serializingInsts              4772                       # count of serializing insts renamed
system.cpu0.rename.skidInsts                 21719990                       # count of insts added to the skid buffer
system.cpu0.rename.tempSerializingInsts          4765                       # count of temporary serializing insts renamed
system.cpu0.rob.rob_reads                  3011342951                       # The number of ROB reads
system.cpu0.rob.rob_writes                 2298212493                       # The number of ROB writes
system.cpu0.timesIdled                       25697459                       # Number of times that the entire CPU went into an idle state and unscheduled itself
system.cpu0.workload.numSyscalls                 1475                       # Number of system calls
system.cpu1.branchPred.BTBCorrect                   0                       # Number of correct BTB predictions (this stat may not work properly.
system.cpu1.branchPred.BTBHitPct            92.717044                       # BTB Hit Percentage
system.cpu1.branchPred.BTBHits                9127433                       # Number of BTB hits
system.cpu1.branchPred.BTBLookups             9844396                       # Number of BTB lookups
system.cpu1.branchPred.RASInCorrect                 0                       # Number of incorrect RAS predictions.
system.cpu1.branchPred.condIncorrect          2009460                       # Number of conditional branches incorrect
system.cpu1.branchPred.condPredicted         17235698                       # Number of conditional branches predicted
system.cpu1.branchPred.indirectHits            346130                       # Number of indirect target hits.
system.cpu1.branchPred.indirectLookups         666915                       # Number of indirect predictor lookups.
system.cpu1.branchPred.indirectMisses          320785                       # Number of indirect misses.
system.cpu1.branchPred.lookups               19036469                       # Number of BP lookups
system.cpu1.branchPred.usedRAS                      0                       # Number of times the RAS was used to get a target.
system.cpu1.branchPredindirectMispredicted         4913                       # Number of mispredicted indirect branches.
system.cpu1.commit.amos                       1811197                       # Number of atomic instructions committed
system.cpu1.commit.branchMispredicts          1129436                       # The number of times a branch was mispredicted
system.cpu1.commit.branches                  12200823                       # Number of branches committed
system.cpu1.commit.bw_lim_events              1171171                       # number cycles where commit BW limit reached
system.cpu1.commit.commitNonSpecStalls        5434259                       # The number of times commit has been forced to stall to communicate backwards
system.cpu1.commit.commitSquashedInsts       20193017                       # The number of squashed insts skipped by commit
system.cpu1.commit.committedInsts            55068646                       # Number of instructions committed
system.cpu1.commit.committedOps              56880019                       # Number of ops (including micro ops) committed
system.cpu1.commit.committed_per_cycle::samples    326199971                       # Number of insts commited each cycle
system.cpu1.commit.committed_per_cycle::mean     0.174372                       # Number of insts commited each cycle
system.cpu1.commit.committed_per_cycle::stdev     0.815213                       # Number of insts commited each cycle
system.cpu1.commit.committed_per_cycle::underflows            0      0.00%      0.00% # Number of insts commited each cycle
system.cpu1.commit.committed_per_cycle::0    302290761     92.67%     92.67% # Number of insts commited each cycle
system.cpu1.commit.committed_per_cycle::1     11964541      3.67%     96.34% # Number of insts commited each cycle
system.cpu1.commit.committed_per_cycle::2      4019744      1.23%     97.57% # Number of insts commited each cycle
system.cpu1.commit.committed_per_cycle::3      3585203      1.10%     98.67% # Number of insts commited each cycle
system.cpu1.commit.committed_per_cycle::4      1010504      0.31%     98.98% # Number of insts commited each cycle
system.cpu1.commit.committed_per_cycle::5       344683      0.11%     99.09% # Number of insts commited each cycle
system.cpu1.commit.committed_per_cycle::6      1707966      0.52%     99.61% # Number of insts commited each cycle
system.cpu1.commit.committed_per_cycle::7       105398      0.03%     99.64% # Number of insts commited each cycle
system.cpu1.commit.committed_per_cycle::8      1171171      0.36%    100.00% # Number of insts commited each cycle
system.cpu1.commit.committed_per_cycle::overflows            0      0.00%    100.00% # Number of insts commited each cycle
system.cpu1.commit.committed_per_cycle::min_value            0                       # Number of insts commited each cycle
system.cpu1.commit.committed_per_cycle::max_value            8                       # Number of insts commited each cycle
system.cpu1.commit.committed_per_cycle::total    326199971                       # Number of insts commited each cycle
system.cpu1.commit.fp_insts                        12                       # Number of committed floating point instructions.
system.cpu1.commit.function_calls              502204                       # Number of function calls committed.
system.cpu1.commit.int_insts                 52966014                       # Number of committed integer instructions.
system.cpu1.commit.loads                     16124618                       # Number of loads committed
system.cpu1.commit.membars                    3622518                       # Number of memory barriers committed
system.cpu1.commit.op_class_0::No_OpClass      3622518      6.37%      6.37% # Class of committed instruction
system.cpu1.commit.op_class_0::IntAlu        32005789     56.27%     62.64% # Class of committed instruction
system.cpu1.commit.op_class_0::IntMult             43      0.00%     62.64% # Class of committed instruction
system.cpu1.commit.op_class_0::IntDiv              86      0.00%     62.64% # Class of committed instruction
system.cpu1.commit.op_class_0::FloatAdd             0      0.00%     62.64% # Class of committed instruction
system.cpu1.commit.op_class_0::FloatCmp             0      0.00%     62.64% # Class of committed instruction
system.cpu1.commit.op_class_0::FloatCvt             0      0.00%     62.64% # Class of committed instruction
system.cpu1.commit.op_class_0::FloatMult            0      0.00%     62.64% # Class of committed instruction
system.cpu1.commit.op_class_0::FloatMultAcc            0      0.00%     62.64% # Class of committed instruction
system.cpu1.commit.op_class_0::FloatDiv             0      0.00%     62.64% # Class of committed instruction
system.cpu1.commit.op_class_0::FloatMisc            0      0.00%     62.64% # Class of committed instruction
system.cpu1.commit.op_class_0::FloatSqrt            0      0.00%     62.64% # Class of committed instruction
system.cpu1.commit.op_class_0::SimdAdd              0      0.00%     62.64% # Class of committed instruction
system.cpu1.commit.op_class_0::SimdAddAcc            0      0.00%     62.64% # Class of committed instruction
system.cpu1.commit.op_class_0::SimdAlu              0      0.00%     62.64% # Class of committed instruction
system.cpu1.commit.op_class_0::SimdCmp              0      0.00%     62.64% # Class of committed instruction
system.cpu1.commit.op_class_0::SimdCvt              0      0.00%     62.64% # Class of committed instruction
system.cpu1.commit.op_class_0::SimdMisc             0      0.00%     62.64% # Class of committed instruction
system.cpu1.commit.op_class_0::SimdMult             0      0.00%     62.64% # Class of committed instruction
system.cpu1.commit.op_class_0::SimdMultAcc            0      0.00%     62.64% # Class of committed instruction
system.cpu1.commit.op_class_0::SimdShift            0      0.00%     62.64% # Class of committed instruction
system.cpu1.commit.op_class_0::SimdShiftAcc            0      0.00%     62.64% # Class of committed instruction
system.cpu1.commit.op_class_0::SimdDiv              0      0.00%     62.64% # Class of committed instruction
system.cpu1.commit.op_class_0::SimdSqrt             0      0.00%     62.64% # Class of committed instruction
system.cpu1.commit.op_class_0::SimdFloatAdd            0      0.00%     62.64% # Class of committed instruction
system.cpu1.commit.op_class_0::SimdFloatAlu            0      0.00%     62.64% # Class of committed instruction
system.cpu1.commit.op_class_0::SimdFloatCmp            0      0.00%     62.64% # Class of committed instruction
system.cpu1.commit.op_class_0::SimdFloatCvt            0      0.00%     62.64% # Class of committed instruction
system.cpu1.commit.op_class_0::SimdFloatDiv            0      0.00%     62.64% # Class of committed instruction
system.cpu1.commit.op_class_0::SimdFloatMisc            0      0.00%     62.64% # Class of committed instruction
system.cpu1.commit.op_class_0::SimdFloatMult            0      0.00%     62.64% # Class of committed instruction
system.cpu1.commit.op_class_0::SimdFloatMultAcc            0      0.00%     62.64% # Class of committed instruction
system.cpu1.commit.op_class_0::SimdFloatSqrt            0      0.00%     62.64% # Class of committed instruction
system.cpu1.commit.op_class_0::SimdReduceAdd            0      0.00%     62.64% # Class of committed instruction
system.cpu1.commit.op_class_0::SimdReduceAlu            0      0.00%     62.64% # Class of committed instruction
system.cpu1.commit.op_class_0::SimdReduceCmp            0      0.00%     62.64% # Class of committed instruction
system.cpu1.commit.op_class_0::SimdFloatReduceAdd            0      0.00%     62.64% # Class of committed instruction
system.cpu1.commit.op_class_0::SimdFloatReduceCmp            0      0.00%     62.64% # Class of committed instruction
system.cpu1.commit.op_class_0::SimdAes              0      0.00%     62.64% # Class of committed instruction
system.cpu1.commit.op_class_0::SimdAesMix            0      0.00%     62.64% # Class of committed instruction
system.cpu1.commit.op_class_0::SimdSha1Hash            0      0.00%     62.64% # Class of committed instruction
system.cpu1.commit.op_class_0::SimdSha1Hash2            0      0.00%     62.64% # Class of committed instruction
system.cpu1.commit.op_class_0::SimdSha256Hash            0      0.00%     62.64% # Class of committed instruction
system.cpu1.commit.op_class_0::SimdSha256Hash2            0      0.00%     62.64% # Class of committed instruction
system.cpu1.commit.op_class_0::SimdShaSigma2            0      0.00%     62.64% # Class of committed instruction
system.cpu1.commit.op_class_0::SimdShaSigma3            0      0.00%     62.64% # Class of committed instruction
system.cpu1.commit.op_class_0::SimdPredAlu            0      0.00%     62.64% # Class of committed instruction
system.cpu1.commit.op_class_0::MemRead       17935815     31.53%     94.17% # Class of committed instruction
system.cpu1.commit.op_class_0::MemWrite       3315756      5.83%    100.00% # Class of committed instruction
system.cpu1.commit.op_class_0::FloatMemRead            0      0.00%    100.00% # Class of committed instruction
system.cpu1.commit.op_class_0::FloatMemWrite           12      0.00%    100.00% # Class of committed instruction
system.cpu1.commit.op_class_0::IprAccess            0      0.00%    100.00% # Class of committed instruction
system.cpu1.commit.op_class_0::InstPrefetch            0      0.00%    100.00% # Class of committed instruction
system.cpu1.commit.op_class_0::total         56880019                       # Class of committed instruction
system.cpu1.commit.refs                      21251583                       # Number of memory references committed
system.cpu1.commit.swp_count                        0                       # Number of s/w prefetches committed
system.cpu1.commit.vec_insts                        0                       # Number of committed Vector instructions.
system.cpu1.committedInsts                   55068646                       # Number of Instructions Simulated
system.cpu1.committedOps                     56880019                       # Number of Ops (including micro ops) Simulated
system.cpu1.cpi                              5.984726                       # CPI: Cycles Per Instruction
system.cpu1.cpi_total                        5.984726                       # CPI: Total CPI of All Threads
system.cpu1.decode.BlockedCycles            284820079                       # Number of cycles decode is blocked
system.cpu1.decode.BranchMispred               886181                       # Number of times decode detected a branch misprediction
system.cpu1.decode.BranchResolved             8425350                       # Number of times decode resolved a branch
system.cpu1.decode.DecodedInsts              82342566                       # Number of instructions handled by decode
system.cpu1.decode.IdleCycles                11578799                       # Number of cycles decode is idle
system.cpu1.decode.RunCycles                 27526468                       # Number of cycles decode is running
system.cpu1.decode.SquashCycles               1129858                       # Number of cycles decode is squashing
system.cpu1.decode.SquashedInsts              1251757                       # Number of squashed instructions handled by decode
system.cpu1.decode.UnblockCycles              4298391                       # Number of cycles decode is unblocking
system.cpu1.dtb.accesses                            0                       # DTB accesses
system.cpu1.dtb.hits                                0                       # DTB hits
system.cpu1.dtb.misses                              0                       # DTB misses
system.cpu1.dtb.read_accesses                       0                       # DTB read accesses
system.cpu1.dtb.read_hits                           0                       # DTB read hits
system.cpu1.dtb.read_misses                         0                       # DTB read misses
system.cpu1.dtb.write_accesses                      0                       # DTB write accesses
system.cpu1.dtb.write_hits                          0                       # DTB write hits
system.cpu1.dtb.write_misses                        0                       # DTB write misses
system.cpu1.fetch.Branches                   19036469                       # Number of branches that fetch encountered
system.cpu1.fetch.CacheLines                 11685852                       # Number of cache lines fetched
system.cpu1.fetch.Cycles                    314538321                       # Number of cycles fetch has run and was not squashing or blocked
system.cpu1.fetch.IcacheSquashes               121287                       # Number of outstanding Icache misses that were squashed
system.cpu1.fetch.IcacheWaitRetryStallCycles           16                       # Number of stall cycles due to full MSHR
system.cpu1.fetch.Insts                      92773262                       # Number of instructions fetch has processed
system.cpu1.fetch.MiscStallCycles                   7                       # Number of cycles fetch has spent waiting on interrupts, or bad addresses, or out of MSHRs
system.cpu1.fetch.PendingTrapStallCycles           30                       # Number of stall cycles due to pending traps
system.cpu1.fetch.SquashCycles                4019772                       # Number of cycles fetch has spent squashing
system.cpu1.fetch.branchRate                 0.057761                       # Number of branch fetches per cycle
system.cpu1.fetch.icacheStallCycles          12805335                       # Number of cycles fetch is stalled on an Icache miss
system.cpu1.fetch.predictedBranches           9473563                       # Number of branches that fetch has predicted taken
system.cpu1.fetch.rate                       0.281497                       # Number of inst fetches per cycle
system.cpu1.fetch.rateDist::samples         329353595                       # Number of instructions fetched each cycle (Total)
system.cpu1.fetch.rateDist::mean             0.292194                       # Number of instructions fetched each cycle (Total)
system.cpu1.fetch.rateDist::stdev            0.782269                       # Number of instructions fetched each cycle (Total)
system.cpu1.fetch.rateDist::underflows              0      0.00%      0.00% # Number of instructions fetched each cycle (Total)
system.cpu1.fetch.rateDist::0               275032507     83.51%     83.51% # Number of instructions fetched each cycle (Total)
system.cpu1.fetch.rateDist::1                29039439      8.82%     92.32% # Number of instructions fetched each cycle (Total)
system.cpu1.fetch.rateDist::2                14711893      4.47%     96.79% # Number of instructions fetched each cycle (Total)
system.cpu1.fetch.rateDist::3                 6277337      1.91%     98.70% # Number of instructions fetched each cycle (Total)
system.cpu1.fetch.rateDist::4                 2847372      0.86%     99.56% # Number of instructions fetched each cycle (Total)
system.cpu1.fetch.rateDist::5                 1126529      0.34%     99.90% # Number of instructions fetched each cycle (Total)
system.cpu1.fetch.rateDist::6                  315073      0.10%    100.00% # Number of instructions fetched each cycle (Total)
system.cpu1.fetch.rateDist::7                     125      0.00%    100.00% # Number of instructions fetched each cycle (Total)
system.cpu1.fetch.rateDist::8                    3320      0.00%    100.00% # Number of instructions fetched each cycle (Total)
system.cpu1.fetch.rateDist::overflows               0      0.00%    100.00% # Number of instructions fetched each cycle (Total)
system.cpu1.fetch.rateDist::min_value               0                       # Number of instructions fetched each cycle (Total)
system.cpu1.fetch.rateDist::max_value               8                       # Number of instructions fetched each cycle (Total)
system.cpu1.fetch.rateDist::total           329353595                       # Number of instructions fetched each cycle (Total)
system.cpu1.fp_regfile_reads                       12                       # number of floating regfile reads
system.cpu1.idleCycles                         217141                       # Total number of cycles that the CPU has spent unscheduled due to idling
system.cpu1.iew.branchMispredicts             1186018                       # Number of branch mispredicts detected at execute
system.cpu1.iew.exec_branches                14434902                       # Number of branches executed
system.cpu1.iew.exec_nop                            0                       # number of nop insts executed
system.cpu1.iew.exec_rate                    0.194866                       # Inst execution rate
system.cpu1.iew.exec_refs                    22518759                       # number of memory reference insts executed
system.cpu1.iew.exec_stores                   5217050                       # Number of stores executed
system.cpu1.iew.exec_swp                            0                       # number of swp insts executed
system.cpu1.iew.iewBlockCycles              247895457                       # Number of cycles IEW is blocking
system.cpu1.iew.iewDispLoadInsts             21753559                       # Number of dispatched load instructions
system.cpu1.iew.iewDispNonSpecInsts           2535247                       # Number of dispatched non-speculative instructions
system.cpu1.iew.iewDispSquashedInsts           813209                       # Number of squashed instructions skipped by dispatch
system.cpu1.iew.iewDispStoreInsts             6740028                       # Number of dispatched store instructions
system.cpu1.iew.iewDispatchedInsts           77063702                       # Number of instructions dispatched to IQ
system.cpu1.iew.iewExecLoadInsts             17301709                       # Number of load instructions executed
system.cpu1.iew.iewExecSquashedInsts          1104782                       # Number of squashed instructions skipped in execute
system.cpu1.iew.iewExecutedInsts             64222069                       # Number of executed instructions
system.cpu1.iew.iewIQFullEvents               1918630                       # Number of times the IQ has become full, causing a stall
system.cpu1.iew.iewIdleCycles                       0                       # Number of cycles IEW is idle
system.cpu1.iew.iewLSQFullEvents              1636731                       # Number of times the LSQ has become full, causing a stall
system.cpu1.iew.iewSquashCycles               1129858                       # Number of cycles IEW is squashing
system.cpu1.iew.iewUnblockCycles              5543553                       # Number of cycles IEW is unblocking
system.cpu1.iew.lsq.thread0.blockedLoads            0                       # Number of blocked loads due to partial load-store forwarding
system.cpu1.iew.lsq.thread0.cacheBlocked        17284                       # Number of times an access to memory failed due to the cache being blocked
system.cpu1.iew.lsq.thread0.forwLoads          272489                       # Number of loads that had data forwarded from stores
system.cpu1.iew.lsq.thread0.ignoredResponses         8260                       # Number of memory responses ignored because the instruction is squashed
system.cpu1.iew.lsq.thread0.invAddrLoads            0                       # Number of loads ignored due to an invalid address
system.cpu1.iew.lsq.thread0.invAddrSwpfs            0                       # Number of software prefetches ignored due to an invalid address
system.cpu1.iew.lsq.thread0.memOrderViolation          446                       # Number of memory ordering violations
system.cpu1.iew.lsq.thread0.rescheduledLoads         2129                       # Number of loads that were rescheduled
system.cpu1.iew.lsq.thread0.squashedLoads      5628941                       # Number of loads squashed
system.cpu1.iew.lsq.thread0.squashedStores      1613063                       # Number of stores squashed
system.cpu1.iew.memOrderViolationEvents           446                       # Number of memory order violations
system.cpu1.iew.predictedNotTakenIncorrect       200905                       # Number of branches that were predicted not taken incorrectly
system.cpu1.iew.predictedTakenIncorrect        985113                       # Number of branches that were predicted taken incorrectly
system.cpu1.iew.wb_consumers                 36204617                       # num instructions consuming a value
system.cpu1.iew.wb_count                     63775859                       # cumulative count of insts written-back
system.cpu1.iew.wb_fanout                    0.862409                       # average fanout of values written-back
system.cpu1.iew.wb_producers                 31223173                       # num instructions producing a value
system.cpu1.iew.wb_rate                      0.193512                       # insts written-back per cycle
system.cpu1.iew.wb_sent                      63792622                       # cumulative count of insts sent to commit
system.cpu1.int_regfile_reads                80003174                       # number of integer regfile reads
system.cpu1.int_regfile_writes               42610132                       # number of integer regfile writes
system.cpu1.ipc                              0.167092                       # IPC: Instructions Per Cycle
system.cpu1.ipc_total                        0.167092                       # IPC: Total IPC of All Threads
system.cpu1.iq.FU_type_0::No_OpClass          3622626      5.55%      5.55% # Type of FU issued
system.cpu1.iq.FU_type_0::IntAlu             39039720     59.76%     65.31% # Type of FU issued
system.cpu1.iq.FU_type_0::IntMult                  45      0.00%     65.31% # Type of FU issued
system.cpu1.iq.FU_type_0::IntDiv                   88      0.00%     65.31% # Type of FU issued
system.cpu1.iq.FU_type_0::FloatAdd                  0      0.00%     65.31% # Type of FU issued
system.cpu1.iq.FU_type_0::FloatCmp                  0      0.00%     65.31% # Type of FU issued
system.cpu1.iq.FU_type_0::FloatCvt                  0      0.00%     65.31% # Type of FU issued
system.cpu1.iq.FU_type_0::FloatMult                 0      0.00%     65.31% # Type of FU issued
system.cpu1.iq.FU_type_0::FloatMultAcc              0      0.00%     65.31% # Type of FU issued
system.cpu1.iq.FU_type_0::FloatDiv                  0      0.00%     65.31% # Type of FU issued
system.cpu1.iq.FU_type_0::FloatMisc                 0      0.00%     65.31% # Type of FU issued
system.cpu1.iq.FU_type_0::FloatSqrt                 0      0.00%     65.31% # Type of FU issued
system.cpu1.iq.FU_type_0::SimdAdd                   0      0.00%     65.31% # Type of FU issued
system.cpu1.iq.FU_type_0::SimdAddAcc                0      0.00%     65.31% # Type of FU issued
system.cpu1.iq.FU_type_0::SimdAlu                   0      0.00%     65.31% # Type of FU issued
system.cpu1.iq.FU_type_0::SimdCmp                   0      0.00%     65.31% # Type of FU issued
system.cpu1.iq.FU_type_0::SimdCvt                   0      0.00%     65.31% # Type of FU issued
system.cpu1.iq.FU_type_0::SimdMisc                  0      0.00%     65.31% # Type of FU issued
system.cpu1.iq.FU_type_0::SimdMult                  0      0.00%     65.31% # Type of FU issued
system.cpu1.iq.FU_type_0::SimdMultAcc               0      0.00%     65.31% # Type of FU issued
system.cpu1.iq.FU_type_0::SimdShift                 0      0.00%     65.31% # Type of FU issued
system.cpu1.iq.FU_type_0::SimdShiftAcc              0      0.00%     65.31% # Type of FU issued
system.cpu1.iq.FU_type_0::SimdDiv                   0      0.00%     65.31% # Type of FU issued
system.cpu1.iq.FU_type_0::SimdSqrt                  0      0.00%     65.31% # Type of FU issued
system.cpu1.iq.FU_type_0::SimdFloatAdd              0      0.00%     65.31% # Type of FU issued
system.cpu1.iq.FU_type_0::SimdFloatAlu              0      0.00%     65.31% # Type of FU issued
system.cpu1.iq.FU_type_0::SimdFloatCmp              0      0.00%     65.31% # Type of FU issued
system.cpu1.iq.FU_type_0::SimdFloatCvt              0      0.00%     65.31% # Type of FU issued
system.cpu1.iq.FU_type_0::SimdFloatDiv              0      0.00%     65.31% # Type of FU issued
system.cpu1.iq.FU_type_0::SimdFloatMisc             0      0.00%     65.31% # Type of FU issued
system.cpu1.iq.FU_type_0::SimdFloatMult             0      0.00%     65.31% # Type of FU issued
system.cpu1.iq.FU_type_0::SimdFloatMultAcc            0      0.00%     65.31% # Type of FU issued
system.cpu1.iq.FU_type_0::SimdFloatSqrt             0      0.00%     65.31% # Type of FU issued
system.cpu1.iq.FU_type_0::SimdReduceAdd             0      0.00%     65.31% # Type of FU issued
system.cpu1.iq.FU_type_0::SimdReduceAlu             0      0.00%     65.31% # Type of FU issued
system.cpu1.iq.FU_type_0::SimdReduceCmp             0      0.00%     65.31% # Type of FU issued
system.cpu1.iq.FU_type_0::SimdFloatReduceAdd            0      0.00%     65.31% # Type of FU issued
system.cpu1.iq.FU_type_0::SimdFloatReduceCmp            0      0.00%     65.31% # Type of FU issued
system.cpu1.iq.FU_type_0::SimdAes                   0      0.00%     65.31% # Type of FU issued
system.cpu1.iq.FU_type_0::SimdAesMix                0      0.00%     65.31% # Type of FU issued
system.cpu1.iq.FU_type_0::SimdSha1Hash              0      0.00%     65.31% # Type of FU issued
system.cpu1.iq.FU_type_0::SimdSha1Hash2             0      0.00%     65.31% # Type of FU issued
system.cpu1.iq.FU_type_0::SimdSha256Hash            0      0.00%     65.31% # Type of FU issued
system.cpu1.iq.FU_type_0::SimdSha256Hash2            0      0.00%     65.31% # Type of FU issued
system.cpu1.iq.FU_type_0::SimdShaSigma2             0      0.00%     65.31% # Type of FU issued
system.cpu1.iq.FU_type_0::SimdShaSigma3             0      0.00%     65.31% # Type of FU issued
system.cpu1.iq.FU_type_0::SimdPredAlu               0      0.00%     65.31% # Type of FU issued
system.cpu1.iq.FU_type_0::MemRead            19243648     29.46%     94.76% # Type of FU issued
system.cpu1.iq.FU_type_0::MemWrite            3420712      5.24%    100.00% # Type of FU issued
system.cpu1.iq.FU_type_0::FloatMemRead              0      0.00%    100.00% # Type of FU issued
system.cpu1.iq.FU_type_0::FloatMemWrite            12      0.00%    100.00% # Type of FU issued
system.cpu1.iq.FU_type_0::IprAccess                 0      0.00%    100.00% # Type of FU issued
system.cpu1.iq.FU_type_0::InstPrefetch              0      0.00%    100.00% # Type of FU issued
system.cpu1.iq.FU_type_0::total              65326851                       # Type of FU issued
system.cpu1.iq.fp_alu_accesses                     14                       # Number of floating point alu accesses
system.cpu1.iq.fp_inst_queue_reads                 26                       # Number of floating instruction queue reads
system.cpu1.iq.fp_inst_queue_wakeup_accesses           12                       # Number of floating instruction queue wakeup accesses
system.cpu1.iq.fp_inst_queue_writes                12                       # Number of floating instruction queue writes
system.cpu1.iq.fu_busy_cnt                    1882458                       # FU busy when requested
system.cpu1.iq.fu_busy_rate                  0.028816                       # FU busy rate (busy events/executed inst)
system.cpu1.iq.fu_full::No_OpClass                  0      0.00%      0.00% # attempts to use FU when none available
system.cpu1.iq.fu_full::IntAlu                 281934     14.98%     14.98% # attempts to use FU when none available
system.cpu1.iq.fu_full::IntMult                     0      0.00%     14.98% # attempts to use FU when none available
system.cpu1.iq.fu_full::IntDiv                      0      0.00%     14.98% # attempts to use FU when none available
system.cpu1.iq.fu_full::FloatAdd                    0      0.00%     14.98% # attempts to use FU when none available
system.cpu1.iq.fu_full::FloatCmp                    0      0.00%     14.98% # attempts to use FU when none available
system.cpu1.iq.fu_full::FloatCvt                    0      0.00%     14.98% # attempts to use FU when none available
system.cpu1.iq.fu_full::FloatMult                   0      0.00%     14.98% # attempts to use FU when none available
system.cpu1.iq.fu_full::FloatMultAcc                0      0.00%     14.98% # attempts to use FU when none available
system.cpu1.iq.fu_full::FloatDiv                    0      0.00%     14.98% # attempts to use FU when none available
system.cpu1.iq.fu_full::FloatMisc                   0      0.00%     14.98% # attempts to use FU when none available
system.cpu1.iq.fu_full::FloatSqrt                   0      0.00%     14.98% # attempts to use FU when none available
system.cpu1.iq.fu_full::SimdAdd                     0      0.00%     14.98% # attempts to use FU when none available
system.cpu1.iq.fu_full::SimdAddAcc                  0      0.00%     14.98% # attempts to use FU when none available
system.cpu1.iq.fu_full::SimdAlu                     0      0.00%     14.98% # attempts to use FU when none available
system.cpu1.iq.fu_full::SimdCmp                     0      0.00%     14.98% # attempts to use FU when none available
system.cpu1.iq.fu_full::SimdCvt                     0      0.00%     14.98% # attempts to use FU when none available
system.cpu1.iq.fu_full::SimdMisc                    0      0.00%     14.98% # attempts to use FU when none available
system.cpu1.iq.fu_full::SimdMult                    0      0.00%     14.98% # attempts to use FU when none available
system.cpu1.iq.fu_full::SimdMultAcc                 0      0.00%     14.98% # attempts to use FU when none available
system.cpu1.iq.fu_full::SimdShift                   0      0.00%     14.98% # attempts to use FU when none available
system.cpu1.iq.fu_full::SimdShiftAcc                0      0.00%     14.98% # attempts to use FU when none available
system.cpu1.iq.fu_full::SimdDiv                     0      0.00%     14.98% # attempts to use FU when none available
system.cpu1.iq.fu_full::SimdSqrt                    0      0.00%     14.98% # attempts to use FU when none available
system.cpu1.iq.fu_full::SimdFloatAdd                0      0.00%     14.98% # attempts to use FU when none available
system.cpu1.iq.fu_full::SimdFloatAlu                0      0.00%     14.98% # attempts to use FU when none available
system.cpu1.iq.fu_full::SimdFloatCmp                0      0.00%     14.98% # attempts to use FU when none available
system.cpu1.iq.fu_full::SimdFloatCvt                0      0.00%     14.98% # attempts to use FU when none available
system.cpu1.iq.fu_full::SimdFloatDiv                0      0.00%     14.98% # attempts to use FU when none available
system.cpu1.iq.fu_full::SimdFloatMisc               0      0.00%     14.98% # attempts to use FU when none available
system.cpu1.iq.fu_full::SimdFloatMult               0      0.00%     14.98% # attempts to use FU when none available
system.cpu1.iq.fu_full::SimdFloatMultAcc            0      0.00%     14.98% # attempts to use FU when none available
system.cpu1.iq.fu_full::SimdFloatSqrt               0      0.00%     14.98% # attempts to use FU when none available
system.cpu1.iq.fu_full::SimdReduceAdd               0      0.00%     14.98% # attempts to use FU when none available
system.cpu1.iq.fu_full::SimdReduceAlu               0      0.00%     14.98% # attempts to use FU when none available
system.cpu1.iq.fu_full::SimdReduceCmp               0      0.00%     14.98% # attempts to use FU when none available
system.cpu1.iq.fu_full::SimdFloatReduceAdd            0      0.00%     14.98% # attempts to use FU when none available
system.cpu1.iq.fu_full::SimdFloatReduceCmp            0      0.00%     14.98% # attempts to use FU when none available
system.cpu1.iq.fu_full::SimdAes                     0      0.00%     14.98% # attempts to use FU when none available
system.cpu1.iq.fu_full::SimdAesMix                  0      0.00%     14.98% # attempts to use FU when none available
system.cpu1.iq.fu_full::SimdSha1Hash                0      0.00%     14.98% # attempts to use FU when none available
system.cpu1.iq.fu_full::SimdSha1Hash2               0      0.00%     14.98% # attempts to use FU when none available
system.cpu1.iq.fu_full::SimdSha256Hash              0      0.00%     14.98% # attempts to use FU when none available
system.cpu1.iq.fu_full::SimdSha256Hash2             0      0.00%     14.98% # attempts to use FU when none available
system.cpu1.iq.fu_full::SimdShaSigma2               0      0.00%     14.98% # attempts to use FU when none available
system.cpu1.iq.fu_full::SimdShaSigma3               0      0.00%     14.98% # attempts to use FU when none available
system.cpu1.iq.fu_full::SimdPredAlu                 0      0.00%     14.98% # attempts to use FU when none available
[...]
system.cpu1.dcache.WriteReq_hits::.cpu1.data       983809                       # number of WriteReq hits
system.cpu1.dcache.WriteReq_hits::total        983809                       # number of WriteReq hits
system.cpu1.dcache.WriteReq_misses::.cpu1.data       389242                       # number of WriteReq misses
system.cpu1.dcache.WriteReq_misses::total       389242                       # number of WriteReq misses
system.cpu1.dcache.WriteReq_miss_latency::.cpu1.data  24750869774                       # number of WriteReq miss cycles
system.cpu1.dcache.WriteReq_miss_latency::total  24750869774                       # number of WriteReq miss cycles
system.cpu1.dcache.WriteReq_accesses::.cpu1.data      1373051                       # number of WriteReq accesses(hits+misses)
system.cpu1.dcache.WriteReq_accesses::total      1373051                       # number of WriteReq accesses(hits+misses)
system.cpu1.dcache.WriteReq_miss_rate::.cpu1.data     0.283487                       # miss rate for WriteReq accesses
system.cpu1.dcache.WriteReq_miss_rate::total     0.283487                       # miss rate for WriteReq accesses
system.cpu1.dcache.WriteReq_avg_miss_latency::.cpu1.data 63587.356385                       # average WriteReq miss latency
system.cpu1.dcache.WriteReq_avg_miss_latency::total 63587.356385                       # average WriteReq miss latency
system.cpu1.dcache.WriteReq_mshr_hits::.cpu1.data       346555                       # number of WriteReq MSHR hits
system.cpu1.dcache.WriteReq_mshr_hits::total       346555                       # number of WriteReq MSHR hits
system.cpu1.dcache.WriteReq_mshr_misses::.cpu1.data        42687                       # number of WriteReq MSHR misses
system.cpu1.dcache.WriteReq_mshr_misses::total        42687                       # number of WriteReq MSHR misses
system.cpu1.dcache.WriteReq_mshr_miss_latency::.cpu1.data   2376976828                       # number of WriteReq MSHR miss cycles
system.cpu1.dcache.WriteReq_mshr_miss_latency::total   2376976828                       # number of WriteReq MSHR miss cycles
system.cpu1.dcache.WriteReq_mshr_miss_rate::.cpu1.data     0.031089                       # mshr miss rate for WriteReq accesses
system.cpu1.dcache.WriteReq_mshr_miss_rate::total     0.031089                       # mshr miss rate for WriteReq accesses
system.cpu1.dcache.WriteReq_avg_mshr_miss_latency::.cpu1.data 55683.857568                       # average WriteReq mshr miss latency
system.cpu1.dcache.WriteReq_avg_mshr_miss_latency::total 55683.857568                       # average WriteReq mshr miss latency
system.cpu1.dcache.LoadLockedReq_hits::.cpu1.data          679                       # number of LoadLockedReq hits
system.cpu1.dcache.LoadLockedReq_hits::total          679                       # number of LoadLockedReq hits
system.cpu1.dcache.LoadLockedReq_misses::.cpu1.data          159                       # number of LoadLockedReq misses
system.cpu1.dcache.LoadLockedReq_misses::total          159                       # number of LoadLockedReq misses
system.cpu1.dcache.LoadLockedReq_miss_latency::.cpu1.data     13923500                       # number of LoadLockedReq miss cycles
system.cpu1.dcache.LoadLockedReq_miss_latency::total     13923500                       # number of LoadLockedReq miss cycles
system.cpu1.dcache.LoadLockedReq_accesses::.cpu1.data          838                       # number of LoadLockedReq accesses(hits+misses)
system.cpu1.dcache.LoadLockedReq_accesses::total          838                       # number of LoadLockedReq accesses(hits+misses)
system.cpu1.dcache.LoadLockedReq_miss_rate::.cpu1.data     0.189737                       # miss rate for LoadLockedReq accesses
system.cpu1.dcache.LoadLockedReq_miss_rate::total     0.189737                       # miss rate for LoadLockedReq accesses
system.cpu1.dcache.LoadLockedReq_avg_miss_latency::.cpu1.data 87569.182390                       # average LoadLockedReq miss latency
system.cpu1.dcache.LoadLockedReq_avg_miss_latency::total 87569.182390                       # average LoadLockedReq miss latency
system.cpu1.dcache.LoadLockedReq_mshr_hits::.cpu1.data           74                       # number of LoadLockedReq MSHR hits
system.cpu1.dcache.LoadLockedReq_mshr_hits::total           74                       # number of LoadLockedReq MSHR hits
system.cpu1.dcache.LoadLockedReq_mshr_misses::.cpu1.data           85                       # number of LoadLockedReq MSHR misses
system.cpu1.dcache.LoadLockedReq_mshr_misses::total           85                       # number of LoadLockedReq MSHR misses
system.cpu1.dcache.LoadLockedReq_mshr_miss_latency::.cpu1.data      7213500                       # number of LoadLockedReq MSHR miss cycles
system.cpu1.dcache.LoadLockedReq_mshr_miss_latency::total      7213500                       # number of LoadLockedReq MSHR miss cycles
system.cpu1.dcache.LoadLockedReq_mshr_miss_rate::.cpu1.data     0.101432                       # mshr miss rate for LoadLockedReq accesses
system.cpu1.dcache.LoadLockedReq_mshr_miss_rate::total     0.101432                       # mshr miss rate for LoadLockedReq accesses
system.cpu1.dcache.LoadLockedReq_avg_mshr_miss_latency::.cpu1.data 84864.705882                       # average LoadLockedReq mshr miss latency
system.cpu1.dcache.LoadLockedReq_avg_mshr_miss_latency::total 84864.705882                       # average LoadLockedReq mshr miss latency
system.cpu1.dcache.StoreCondReq_hits::.cpu1.data          574                       # number of StoreCondReq hits
system.cpu1.dcache.StoreCondReq_hits::total          574                       # number of StoreCondReq hits
system.cpu1.dcache.StoreCondReq_misses::.cpu1.data          225                       # number of StoreCondReq misses
system.cpu1.dcache.StoreCondReq_misses::total          225                       # number of StoreCondReq misses
system.cpu1.dcache.StoreCondReq_miss_latency::.cpu1.data      2071000                       # number of StoreCondReq miss cycles
system.cpu1.dcache.StoreCondReq_miss_latency::total      2071000                       # number of StoreCondReq miss cycles
system.cpu1.dcache.StoreCondReq_accesses::.cpu1.data          799                       # number of StoreCondReq accesses(hits+misses)
system.cpu1.dcache.StoreCondReq_accesses::total          799                       # number of StoreCondReq accesses(hits+misses)
system.cpu1.dcache.StoreCondReq_miss_rate::.cpu1.data     0.281602                       # miss rate for StoreCondReq accesses
system.cpu1.dcache.StoreCondReq_miss_rate::total     0.281602                       # miss rate for StoreCondReq accesses
system.cpu1.dcache.StoreCondReq_avg_miss_latency::.cpu1.data  9204.444444                       # average StoreCondReq miss latency
system.cpu1.dcache.StoreCondReq_avg_miss_latency::total  9204.444444                       # average StoreCondReq miss latency
system.cpu1.dcache.StoreCondReq_mshr_misses::.cpu1.data          225                       # number of StoreCondReq MSHR misses
system.cpu1.dcache.StoreCondReq_mshr_misses::total          225                       # number of StoreCondReq MSHR misses
system.cpu1.dcache.StoreCondReq_mshr_miss_latency::.cpu1.data      1847000                       # number of StoreCondReq MSHR miss cycles
system.cpu1.dcache.StoreCondReq_mshr_miss_latency::total      1847000                       # number of StoreCondReq MSHR miss cycles
system.cpu1.dcache.StoreCondReq_mshr_miss_rate::.cpu1.data     0.281602                       # mshr miss rate for StoreCondReq accesses
system.cpu1.dcache.StoreCondReq_mshr_miss_rate::total     0.281602                       # mshr miss rate for StoreCondReq accesses
system.cpu1.dcache.StoreCondReq_avg_mshr_miss_latency::.cpu1.data  8208.888889                       # average StoreCondReq mshr miss latency
system.cpu1.dcache.StoreCondReq_avg_mshr_miss_latency::total  8208.888889                       # average StoreCondReq mshr miss latency
system.cpu1.dcache.StoreCondFailReq_miss_latency::.cpu1.data        33500                       # number of StoreCondFailReq miss cycles
system.cpu1.dcache.StoreCondFailReq_miss_latency::total        33500                       # number of StoreCondFailReq miss cycles
system.cpu1.dcache.StoreCondFailReq_avg_miss_latency::.cpu1.data          inf                       # average StoreCondFailReq miss latency
system.cpu1.dcache.StoreCondFailReq_avg_miss_latency::total          inf                       # average StoreCondFailReq miss latency
system.cpu1.dcache.StoreCondFailReq_mshr_miss_latency::.cpu1.data        32500                       # number of StoreCondFailReq MSHR miss cycles
system.cpu1.dcache.StoreCondFailReq_mshr_miss_latency::total        32500                       # number of StoreCondFailReq MSHR miss cycles
system.cpu1.dcache.StoreCondFailReq_avg_mshr_miss_latency::.cpu1.data          inf                       # average StoreCondFailReq mshr miss latency
system.cpu1.dcache.StoreCondFailReq_avg_mshr_miss_latency::total          inf                       # average StoreCondFailReq mshr miss latency
system.cpu1.dcache.SwapReq_hits::.cpu1.data          310                       # number of SwapReq hits
system.cpu1.dcache.SwapReq_hits::total            310                       # number of SwapReq hits
system.cpu1.dcache.SwapReq_misses::.cpu1.data          155                       # number of SwapReq misses
system.cpu1.dcache.SwapReq_misses::total          155                       # number of SwapReq misses
system.cpu1.dcache.SwapReq_miss_latency::.cpu1.data       770500                       # number of SwapReq miss cycles
system.cpu1.dcache.SwapReq_miss_latency::total       770500                       # number of SwapReq miss cycles
system.cpu1.dcache.SwapReq_accesses::.cpu1.data          465                       # number of SwapReq accesses(hits+misses)
system.cpu1.dcache.SwapReq_accesses::total          465                       # number of SwapReq accesses(hits+misses)
system.cpu1.dcache.SwapReq_miss_rate::.cpu1.data     0.333333                       # miss rate for SwapReq accesses
system.cpu1.dcache.SwapReq_miss_rate::total     0.333333                       # miss rate for SwapReq accesses
system.cpu1.dcache.SwapReq_avg_miss_latency::.cpu1.data  4970.967742                       # average SwapReq miss latency
system.cpu1.dcache.SwapReq_avg_miss_latency::total  4970.967742                       # average SwapReq miss latency
system.cpu1.dcache.SwapReq_mshr_misses::.cpu1.data          155                       # number of SwapReq MSHR misses
system.cpu1.dcache.SwapReq_mshr_misses::total          155                       # number of SwapReq MSHR misses
system.cpu1.dcache.SwapReq_mshr_miss_latency::.cpu1.data       615500                       # number of SwapReq MSHR miss cycles
system.cpu1.dcache.SwapReq_mshr_miss_latency::total       615500                       # number of SwapReq MSHR miss cycles
system.cpu1.dcache.SwapReq_mshr_miss_rate::.cpu1.data     0.333333                       # mshr miss rate for SwapReq accesses
system.cpu1.dcache.SwapReq_mshr_miss_rate::total     0.333333                       # mshr miss rate for SwapReq accesses
system.cpu1.dcache.SwapReq_avg_mshr_miss_latency::.cpu1.data  3970.967742                       # average SwapReq mshr miss latency
system.cpu1.dcache.SwapReq_avg_mshr_miss_latency::total  3970.967742                       # average SwapReq mshr miss latency
system.cpu1.dcache.tags.pwrStateResidencyTicks::UNDEFINED 595055326000                       # Cumulative time (in ticks) in various power states
system.cpu1.dcache.tags.tagsinuse           31.980796                       # Cycle average of tags in use
system.cpu1.dcache.tags.total_refs           18240182                       # Total number of references to valid blocks.
system.cpu1.dcache.tags.sampled_refs          2044708                       # Sample count of references to valid blocks.
system.cpu1.dcache.tags.avg_refs             8.920678                       # Average number of references to valid blocks.
system.cpu1.dcache.tags.warmup_cycle                0                       # Cycle when the warmup percentage was hit.
system.cpu1.dcache.tags.occ_blocks::.cpu1.data    31.980796                       # Average occupied blocks per requestor
system.cpu1.dcache.tags.occ_percent::.cpu1.data     0.999400                       # Average percentage of cache occupancy
system.cpu1.dcache.tags.occ_percent::total     0.999400                       # Average percentage of cache occupancy
system.cpu1.dcache.tags.occ_task_id_blocks::1024           32                       # Occupied blocks per task id
system.cpu1.dcache.tags.age_task_id_blocks_1024::1           32                       # Occupied blocks per task id
system.cpu1.dcache.tags.occ_task_id_percent::1024            1                       # Percentage of cache occupancy per task id
system.cpu1.dcache.tags.tag_accesses         43830755                       # Number of tag accesses
system.cpu1.dcache.tags.data_accesses        43830755                       # Number of data accesses
system.cpu_clk_domain.clock                       500                       # Clock period in ticks
system.tol2bus.pwrStateResidencyTicks::UNDEFINED 595055326000                       # Cumulative time (in ticks) in various power states
system.tol2bus.trans_dist::ReadResp          25232413                       # Transaction distribution
system.tol2bus.trans_dist::WritebackDirty       898379                       # Transaction distribution
system.tol2bus.trans_dist::WritebackClean     24834649                       # Transaction distribution
system.tol2bus.trans_dist::CleanEvict        81462243                       # Transaction distribution
system.tol2bus.trans_dist::HardPFReq         63509780                       # Transaction distribution
system.tol2bus.trans_dist::HardPFResp               2                       # Transaction distribution
system.tol2bus.trans_dist::UpgradeReq            1823                       # Transaction distribution
system.tol2bus.trans_dist::SCUpgradeReq           454                       # Transaction distribution
system.tol2bus.trans_dist::UpgradeResp           2277                       # Transaction distribution
system.tol2bus.trans_dist::SCUpgradeFailReq            1                       # Transaction distribution
system.tol2bus.trans_dist::UpgradeFailResp            1                       # Transaction distribution
system.tol2bus.trans_dist::ReadExReq            85831                       # Transaction distribution
system.tol2bus.trans_dist::ReadExResp           85831                       # Transaction distribution
system.tol2bus.trans_dist::ReadCleanReq         17799                       # Transaction distribution
system.tol2bus.trans_dist::ReadSharedReq     25214613                       # Transaction distribution
system.tol2bus.trans_dist::InvalidateReq            1                       # Transaction distribution
system.tol2bus.trans_dist::InvalidateResp            1                       # Transaction distribution
system.tol2bus.pkt_count_system.cpu0.icache.mem_side::system.l2.cpu_side        45602                       # Packet count per connected master and slave (bytes)
system.tol2bus.pkt_count_system.cpu0.dcache.mem_side::system.l2.cpu_side     69766463                       # Packet count per connected master and slave (bytes)
system.tol2bus.pkt_count_system.cpu1.icache.mem_side::system.l2.cpu_side         7797                       # Packet count per connected master and slave (bytes)
system.tol2bus.pkt_count_system.cpu1.dcache.mem_side::system.l2.cpu_side      6130732                       # Packet count per connected master and slave (bytes)
system.tol2bus.pkt_count::total              75950594                       # Packet count per connected master and slave (bytes)
system.tol2bus.pkt_size_system.cpu0.icache.mem_side::system.l2.cpu_side      1945728                       # Cumulative packet size per connected master and slave (bytes)
system.tol2bus.pkt_size_system.cpu0.dcache.mem_side::system.l2.cpu_side   2976536512                       # Cumulative packet size per connected master and slave (bytes)
system.tol2bus.pkt_size_system.cpu1.icache.mem_side::system.l2.cpu_side       332672                       # Cumulative packet size per connected master and slave (bytes)
system.tol2bus.pkt_size_system.cpu1.dcache.mem_side::system.l2.cpu_side    261451456                       # Cumulative packet size per connected master and slave (bytes)
system.tol2bus.pkt_size::total             3240266368                       # Cumulative packet size per connected master and slave (bytes)
system.tol2bus.snoops                       145395506                       # Total snoops (count)
system.tol2bus.snoopTraffic                  27015360                       # Total snoop traffic (bytes)
system.tol2bus.snoop_fanout::samples        170710211                       # Request fanout histogram
system.tol2bus.snoop_fanout::mean            0.133471                       # Request fanout histogram
system.tol2bus.snoop_fanout::stdev           0.341642                       # Request fanout histogram
system.tol2bus.snoop_fanout::underflows             0      0.00%      0.00% # Request fanout histogram
system.tol2bus.snoop_fanout::0              148016077     86.71%     86.71% # Request fanout histogram
system.tol2bus.snoop_fanout::1               22603429     13.24%     99.95% # Request fanout histogram
system.tol2bus.snoop_fanout::2                  90705      0.05%    100.00% # Request fanout histogram
system.tol2bus.snoop_fanout::3                      0      0.00%    100.00% # Request fanout histogram
system.tol2bus.snoop_fanout::4                      0      0.00%    100.00% # Request fanout histogram
system.tol2bus.snoop_fanout::5                      0      0.00%    100.00% # Request fanout histogram
system.tol2bus.snoop_fanout::6                      0      0.00%    100.00% # Request fanout histogram
system.tol2bus.snoop_fanout::7                      0      0.00%    100.00% # Request fanout histogram
system.tol2bus.snoop_fanout::8                      0      0.00%    100.00% # Request fanout histogram
system.tol2bus.snoop_fanout::overflows              0      0.00%    100.00% # Request fanout histogram
system.tol2bus.snoop_fanout::min_value              0                       # Request fanout histogram
system.tol2bus.snoop_fanout::max_value              2                       # Request fanout histogram
system.tol2bus.snoop_fanout::total          170710211                       # Request fanout histogram
system.tol2bus.reqLayer0.occupancy        50635422954                       # Layer occupancy (ticks)
system.tol2bus.reqLayer0.utilization              8.5                       # Layer utilization (%)
system.tol2bus.respLayer1.occupancy       34887940019                       # Layer occupancy (ticks)
system.tol2bus.respLayer1.utilization             5.9                       # Layer utilization (%)
system.tol2bus.respLayer0.occupancy          22807987                       # Layer occupancy (ticks)
system.tol2bus.respLayer0.utilization             0.0                       # Layer utilization (%)
system.tol2bus.respLayer3.occupancy        3070073052                       # Layer occupancy (ticks)
system.tol2bus.respLayer3.utilization             0.5                       # Layer utilization (%)
system.tol2bus.respLayer2.occupancy           3900995                       # Layer occupancy (ticks)
system.tol2bus.respLayer2.utilization             0.0                       # Layer utilization (%)
system.tol2bus.snoopLayer0.occupancy             3001                       # Layer occupancy (ticks)
system.tol2bus.snoopLayer0.utilization            0.0                       # Layer utilization (%)

---------- End Simulation Statistics   ----------
