
---------- Begin Simulation Statistics ----------
final_tick                               1181021751000                       # Number of ticks from beginning of simulation (restored from checkpoints and never reset)
host_inst_rate                                  99417                       # Simulator instruction rate (inst/s)
host_mem_usage                                 739048                       # Number of bytes of host memory used
host_op_rate                                    99707                       # Simulator op (including micro ops) rate (op/s)
host_seconds                                 14493.59                       # Real time elapsed on the host
host_tick_rate                               81485808                       # Simulator tick rate (ticks/s)
sim_freq                                 1000000000000                       # Frequency of simulated ticks
sim_insts                                  1440912237                       # Number of instructions simulated
sim_ops                                    1445117221                       # Number of ops (including micro ops) simulated
sim_seconds                                  1.181022                       # Number of seconds simulated
sim_ticks                                1181021751000                       # Number of ticks simulated
system.cpu0.branchPred.BTBCorrect                   0                       # Number of correct BTB predictions (this stat may not work properly.
system.cpu0.branchPred.BTBHitPct            87.938231                       # BTB Hit Percentage
system.cpu0.branchPred.BTBHits              167754799                       # Number of BTB hits
system.cpu0.branchPred.BTBLookups           190764355                       # Number of BTB lookups
system.cpu0.branchPred.RASInCorrect                 0                       # Number of incorrect RAS predictions.
system.cpu0.branchPred.condIncorrect         14814932                       # Number of conditional branches incorrect
system.cpu0.branchPred.condPredicted        258804432                       # Number of conditional branches predicted
system.cpu0.branchPred.indirectHits          20651619                       # Number of indirect target hits.
system.cpu0.branchPred.indirectLookups       21355355                       # Number of indirect predictor lookups.
system.cpu0.branchPred.indirectMisses          703736                       # Number of indirect misses.
system.cpu0.branchPred.lookups              327704402                       # Number of BP lookups
system.cpu0.branchPred.usedRAS                      0                       # Number of times the RAS was used to get a target.
system.cpu0.branchPredindirectMispredicted      2150139                       # Number of mispredicted indirect branches.
system.cpu0.commit.amos                       1050475                       # Number of atomic instructions committed
system.cpu0.commit.branchMispredicts          9066612                       # The number of times a branch was mispredicted
system.cpu0.commit.branches                 313653928                       # Number of branches committed
system.cpu0.commit.bw_lim_events             31687371                       # number cycles where commit BW limit reached
system.cpu0.commit.commitNonSpecStalls        3160671                       # The number of times commit has been forced to stall to communicate backwards
system.cpu0.commit.commitSquashedInsts       46028680                       # The number of squashed insts skipped by commit
system.cpu0.commit.committedInsts          1250507643                       # Number of instructions committed
system.cpu0.commit.committedOps            1251561405                       # Number of ops (including micro ops) committed
system.cpu0.commit.committed_per_cycle::samples   2193528948                       # Number of insts commited each cycle
system.cpu0.commit.committed_per_cycle::mean     0.570570                       # Number of insts commited each cycle
system.cpu0.commit.committed_per_cycle::stdev     1.303948                       # Number of insts commited each cycle
system.cpu0.commit.committed_per_cycle::underflows            0      0.00%      0.00% # Number of insts commited each cycle
system.cpu0.commit.committed_per_cycle::0   1574137698     71.76%     71.76% # Number of insts commited each cycle
system.cpu0.commit.committed_per_cycle::1    366274563     16.70%     88.46% # Number of insts commited each cycle
system.cpu0.commit.committed_per_cycle::2     96402795      4.39%     92.86% # Number of insts commited each cycle
system.cpu0.commit.committed_per_cycle::3     88702057      4.04%     96.90% # Number of insts commited each cycle
system.cpu0.commit.committed_per_cycle::4     22085459      1.01%     97.91% # Number of insts commited each cycle
system.cpu0.commit.committed_per_cycle::5      5622729      0.26%     98.16% # Number of insts commited each cycle
system.cpu0.commit.committed_per_cycle::6      3893300      0.18%     98.34% # Number of insts commited each cycle
system.cpu0.commit.committed_per_cycle::7      4722976      0.22%     98.56% # Number of insts commited each cycle
system.cpu0.commit.committed_per_cycle::8     31687371      1.44%    100.00% # Number of insts commited each cycle
system.cpu0.commit.committed_per_cycle::overflows            0      0.00%    100.00% # Number of insts commited each cycle
system.cpu0.commit.committed_per_cycle::min_value            0                       # Number of insts commited each cycle
system.cpu0.commit.committed_per_cycle::max_value            8                       # Number of insts commited each cycle
system.cpu0.commit.committed_per_cycle::total   2193528948                       # Number of insts commited each cycle
system.cpu0.commit.fp_insts                        50                       # Number of committed floating point instructions.
system.cpu0.commit.function_calls            24112952                       # Number of function calls committed.
system.cpu0.commit.int_insts               1209807653                       # Number of committed integer instructions.
system.cpu0.commit.loads                    388697417                       # Number of loads committed
system.cpu0.commit.membars                    2104081                       # Number of memory barriers committed
system.cpu0.commit.op_class_0::No_OpClass      2104087      0.17%      0.17% # Class of committed instruction
system.cpu0.commit.op_class_0::IntAlu       699522362     55.89%     56.06% # Class of committed instruction
system.cpu0.commit.op_class_0::IntMult       11831882      0.95%     57.01% # Class of committed instruction
system.cpu0.commit.op_class_0::IntDiv         2099835      0.17%     57.17% # Class of committed instruction
system.cpu0.commit.op_class_0::FloatAdd             0      0.00%     57.17% # Class of committed instruction
system.cpu0.commit.op_class_0::FloatCmp             4      0.00%     57.17% # Class of committed instruction
system.cpu0.commit.op_class_0::FloatCvt            12      0.00%     57.17% # Class of committed instruction
system.cpu0.commit.op_class_0::FloatMult            0      0.00%     57.17% # Class of committed instruction
system.cpu0.commit.op_class_0::FloatMultAcc            0      0.00%     57.17% # Class of committed instruction
system.cpu0.commit.op_class_0::FloatDiv             2      0.00%     57.17% # Class of committed instruction
system.cpu0.commit.op_class_0::FloatMisc            4      0.00%     57.17% # Class of committed instruction
system.cpu0.commit.op_class_0::FloatSqrt            0      0.00%     57.17% # Class of committed instruction
system.cpu0.commit.op_class_0::SimdAdd              0      0.00%     57.17% # Class of committed instruction
system.cpu0.commit.op_class_0::SimdAddAcc            0      0.00%     57.17% # Class of committed instruction
system.cpu0.commit.op_class_0::SimdAlu              0      0.00%     57.17% # Class of committed instruction
system.cpu0.commit.op_class_0::SimdCmp              0      0.00%     57.17% # Class of committed instruction
system.cpu0.commit.op_class_0::SimdCvt              0      0.00%     57.17% # Class of committed instruction
system.cpu0.commit.op_class_0::SimdMisc             0      0.00%     57.17% # Class of committed instruction
system.cpu0.commit.op_class_0::SimdMult             0      0.00%     57.17% # Class of committed instruction
system.cpu0.commit.op_class_0::SimdMultAcc            0      0.00%     57.17% # Class of committed instruction
system.cpu0.commit.op_class_0::SimdShift            0      0.00%     57.17% # Class of committed instruction
system.cpu0.commit.op_class_0::SimdShiftAcc            0      0.00%     57.17% # Class of committed instruction
system.cpu0.commit.op_class_0::SimdDiv              0      0.00%     57.17% # Class of committed instruction
system.cpu0.commit.op_class_0::SimdSqrt             0      0.00%     57.17% # Class of committed instruction
system.cpu0.commit.op_class_0::SimdFloatAdd            0      0.00%     57.17% # Class of committed instruction
system.cpu0.commit.op_class_0::SimdFloatAlu            0      0.00%     57.17% # Class of committed instruction
system.cpu0.commit.op_class_0::SimdFloatCmp            0      0.00%     57.17% # Class of committed instruction
system.cpu0.commit.op_class_0::SimdFloatCvt            0      0.00%     57.17% # Class of committed instruction
system.cpu0.commit.op_class_0::SimdFloatDiv            0      0.00%     57.17% # Class of committed instruction
system.cpu0.commit.op_class_0::SimdFloatMisc            0      0.00%     57.17% # Class of committed instruction
system.cpu0.commit.op_class_0::SimdFloatMult            0      0.00%     57.17% # Class of committed instruction
system.cpu0.commit.op_class_0::SimdFloatMultAcc            0      0.00%     57.17% # Class of committed instruction
system.cpu0.commit.op_class_0::SimdFloatSqrt            0      0.00%     57.17% # Class of committed instruction
system.cpu0.commit.op_class_0::SimdReduceAdd            0      0.00%     57.17% # Class of committed instruction
system.cpu0.commit.op_class_0::SimdReduceAlu            0      0.00%     57.17% # Class of committed instruction
system.cpu0.commit.op_class_0::SimdReduceCmp            0      0.00%     57.17% # Class of committed instruction
system.cpu0.commit.op_class_0::SimdFloatReduceAdd            0      0.00%     57.17% # Class of committed instruction
system.cpu0.commit.op_class_0::SimdFloatReduceCmp            0      0.00%     57.17% # Class of committed instruction
system.cpu0.commit.op_class_0::SimdAes              0      0.00%     57.17% # Class of committed instruction
system.cpu0.commit.op_class_0::SimdAesMix            0      0.00%     57.17% # Class of committed instruction
system.cpu0.commit.op_class_0::SimdSha1Hash            0      0.00%     57.17% # Class of committed instruction
system.cpu0.commit.op_class_0::SimdSha1Hash2            0      0.00%     57.17% # Class of committed instruction
system.cpu0.commit.op_class_0::SimdSha256Hash            0      0.00%     57.17% # Class of committed instruction
system.cpu0.commit.op_class_0::SimdSha256Hash2            0      0.00%     57.17% # Class of committed instruction
system.cpu0.commit.op_class_0::SimdShaSigma2            0      0.00%     57.17% # Class of committed instruction
system.cpu0.commit.op_class_0::SimdShaSigma3            0      0.00%     57.17% # Class of committed instruction
system.cpu0.commit.op_class_0::SimdPredAlu            0      0.00%     57.17% # Class of committed instruction
system.cpu0.commit.op_class_0::MemRead      389747884     31.14%     88.31% # Class of committed instruction
system.cpu0.commit.op_class_0::MemWrite     146255305     11.69%    100.00% # Class of committed instruction
system.cpu0.commit.op_class_0::FloatMemRead            8      0.00%    100.00% # Class of committed instruction
system.cpu0.commit.op_class_0::FloatMemWrite           20      0.00%    100.00% # Class of committed instruction
system.cpu0.commit.op_class_0::IprAccess            0      0.00%    100.00% # Class of committed instruction
system.cpu0.commit.op_class_0::InstPrefetch            0      0.00%    100.00% # Class of committed instruction
system.cpu0.commit.op_class_0::total       1251561405                       # Class of committed instruction
system.cpu0.commit.refs                     536003217                       # Number of memory references committed
system.cpu0.commit.swp_count                        0                       # Number of s/w prefetches committed
system.cpu0.commit.vec_insts                        0                       # Number of committed Vector instructions.
system.cpu0.committedInsts                 1250507643                       # Number of Instructions Simulated
system.cpu0.committedOps                   1251561405                       # Number of Ops (including micro ops) Simulated
system.cpu0.cpi                              1.880884                       # CPI: Cycles Per Instruction
system.cpu0.cpi_total                        1.880884                       # CPI: Total CPI of All Threads
system.cpu0.decode.BlockedCycles            303674354                       # Number of cycles decode is blocked
system.cpu0.decode.BranchMispred              5774473                       # Number of times decode detected a branch misprediction
system.cpu0.decode.BranchResolved           167244265                       # Number of times decode resolved a branch
system.cpu0.decode.DecodedInsts            1320499608                       # Number of instructions handled by decode
system.cpu0.decode.IdleCycles               967929991                       # Number of cycles decode is idle
system.cpu0.decode.RunCycles                920700090                       # Number of cycles decode is running
system.cpu0.decode.SquashCycles               9081035                       # Number of cycles decode is squashing
system.cpu0.decode.SquashedInsts             12868794                       # Number of squashed instructions handled by decode
system.cpu0.decode.UnblockCycles              3967468                       # Number of cycles decode is unblocking
system.cpu0.dtb.accesses                            0                       # DTB accesses
system.cpu0.dtb.hits                                0                       # DTB hits
system.cpu0.dtb.misses                              0                       # DTB misses
system.cpu0.dtb.read_accesses                       0                       # DTB read accesses
system.cpu0.dtb.read_hits                           0                       # DTB read hits
system.cpu0.dtb.read_misses                         0                       # DTB read misses
system.cpu0.dtb.write_accesses                      0                       # DTB write accesses
system.cpu0.dtb.write_hits                          0                       # DTB write hits
system.cpu0.dtb.write_misses                        0                       # DTB write misses
system.cpu0.fetch.Branches                  327704402                       # Number of branches that fetch encountered
system.cpu0.fetch.CacheLines                242781778                       # Number of cache lines fetched
system.cpu0.fetch.Cycles                   1246103349                       # Number of cycles fetch has run and was not squashing or blocked
system.cpu0.fetch.IcacheSquashes              4800433                       # Number of outstanding Icache misses that were squashed
system.cpu0.fetch.IcacheWaitRetryStallCycles           66                       # Number of stall cycles due to full MSHR
system.cpu0.fetch.Insts                    1341870515                       # Number of instructions fetch has processed
system.cpu0.fetch.MiscStallCycles                  90                       # Number of cycles fetch has spent waiting on interrupts, or bad addresses, or out of MSHRs
system.cpu0.fetch.PendingTrapStallCycles          498                       # Number of stall cycles due to pending traps
system.cpu0.fetch.SquashCycles               29658864                       # Number of cycles fetch has spent squashing
system.cpu0.fetch.branchRate                 0.139327                       # Number of branch fetches per cycle
system.cpu0.fetch.icacheStallCycles         944419503                       # Number of cycles fetch is stalled on an Icache miss
system.cpu0.fetch.predictedBranches         188406418                       # Number of branches that fetch has predicted taken
system.cpu0.fetch.rate                       0.570509                       # Number of inst fetches per cycle
system.cpu0.fetch.rateDist::samples        2205352938                       # Number of instructions fetched each cycle (Total)
system.cpu0.fetch.rateDist::mean             0.608939                       # Number of instructions fetched each cycle (Total)
system.cpu0.fetch.rateDist::stdev            0.885236                       # Number of instructions fetched each cycle (Total)
system.cpu0.fetch.rateDist::underflows              0      0.00%      0.00% # Number of instructions fetched each cycle (Total)
system.cpu0.fetch.rateDist::0              1250909639     56.72%     56.72% # Number of instructions fetched each cycle (Total)
system.cpu0.fetch.rateDist::1               716393779     32.48%     89.21% # Number of instructions fetched each cycle (Total)
system.cpu0.fetch.rateDist::2               122120667      5.54%     94.74% # Number of instructions fetched each cycle (Total)
system.cpu0.fetch.rateDist::3                96835841      4.39%     99.13% # Number of instructions fetched each cycle (Total)
system.cpu0.fetch.rateDist::4                12160422      0.55%     99.69% # Number of instructions fetched each cycle (Total)
system.cpu0.fetch.rateDist::5                 2667719      0.12%     99.81% # Number of instructions fetched each cycle (Total)
system.cpu0.fetch.rateDist::6                   56461      0.00%     99.81% # Number of instructions fetched each cycle (Total)
system.cpu0.fetch.rateDist::7                 4204167      0.19%    100.00% # Number of instructions fetched each cycle (Total)
system.cpu0.fetch.rateDist::8                    4243      0.00%    100.00% # Number of instructions fetched each cycle (Total)
system.cpu0.fetch.rateDist::overflows               0      0.00%    100.00% # Number of instructions fetched each cycle (Total)
system.cpu0.fetch.rateDist::min_value               0                       # Number of instructions fetched each cycle (Total)
system.cpu0.fetch.rateDist::max_value               8                       # Number of instructions fetched each cycle (Total)
system.cpu0.fetch.rateDist::total          2205352938                       # Number of instructions fetched each cycle (Total)
system.cpu0.fp_regfile_reads                       44                       # number of floating regfile reads
system.cpu0.fp_regfile_writes                      22                       # number of floating regfile writes
system.cpu0.idleCycles                      146707372                       # Total number of cycles that the CPU has spent unscheduled due to idling
system.cpu0.iew.branchMispredicts             9135155                       # Number of branch mispredicts detected at execute
system.cpu0.iew.exec_branches               319144483                       # Number of branches executed
system.cpu0.iew.exec_nop                            0                       # number of nop insts executed
system.cpu0.iew.exec_rate                    0.546396                       # Inst execution rate
system.cpu0.iew.exec_refs                   556193989                       # number of memory reference insts executed
system.cpu0.iew.exec_stores                 149377470                       # Number of stores executed
system.cpu0.iew.exec_swp                            0                       # number of swp insts executed
system.cpu0.iew.iewBlockCycles              218395508                       # Number of cycles IEW is blocking
system.cpu0.iew.iewDispLoadInsts            409200544                       # Number of dispatched load instructions
system.cpu0.iew.iewDispNonSpecInsts           1056832                       # Number of dispatched non-speculative instructions
system.cpu0.iew.iewDispSquashedInsts          5101167                       # Number of squashed instructions skipped by dispatch
system.cpu0.iew.iewDispStoreInsts           150183236                       # Number of dispatched store instructions
system.cpu0.iew.iewDispatchedInsts         1297560097                       # Number of instructions dispatched to IQ
system.cpu0.iew.iewExecLoadInsts            406816519                       # Number of load instructions executed
system.cpu0.iew.iewExecSquashedInsts          7242718                       # Number of squashed instructions skipped in execute
system.cpu0.iew.iewExecutedInsts           1285155957                       # Number of executed instructions
system.cpu0.iew.iewIQFullEvents                818176                       # Number of times the IQ has become full, causing a stall
system.cpu0.iew.iewIdleCycles                       0                       # Number of cycles IEW is idle
system.cpu0.iew.iewLSQFullEvents              9838072                       # Number of times the LSQ has become full, causing a stall
system.cpu0.iew.iewSquashCycles               9081035                       # Number of cycles IEW is squashing
system.cpu0.iew.iewUnblockCycles             12036182                       # Number of cycles IEW is unblocking
system.cpu0.iew.lsq.thread0.blockedLoads            0                       # Number of blocked loads due to partial load-store forwarding
system.cpu0.iew.lsq.thread0.cacheBlocked       207130                       # Number of times an access to memory failed due to the cache being blocked
system.cpu0.iew.lsq.thread0.forwLoads        20429588                       # Number of loads that had data forwarded from stores
system.cpu0.iew.lsq.thread0.ignoredResponses        18521                       # Number of memory responses ignored because the instruction is squashed
system.cpu0.iew.lsq.thread0.invAddrLoads            0                       # Number of loads ignored due to an invalid address
system.cpu0.iew.lsq.thread0.invAddrSwpfs            0                       # Number of software prefetches ignored due to an invalid address
system.cpu0.iew.lsq.thread0.memOrderViolation        13474                       # Number of memory ordering violations
system.cpu0.iew.lsq.thread0.rescheduledLoads      4581692                       # Number of loads that were rescheduled
system.cpu0.iew.lsq.thread0.squashedLoads     20503127                       # Number of loads squashed
system.cpu0.iew.lsq.thread0.squashedStores      2877436                       # Number of stores squashed
system.cpu0.iew.memOrderViolationEvents         13474                       # Number of memory order violations
system.cpu0.iew.predictedNotTakenIncorrect       414240                       # Number of branches that were predicted not taken incorrectly
system.cpu0.iew.predictedTakenIncorrect       8720915                       # Number of branches that were predicted taken incorrectly
system.cpu0.iew.wb_consumers                541198117                       # num instructions consuming a value
system.cpu0.iew.wb_count                   1276178696                       # cumulative count of insts written-back
system.cpu0.iew.wb_fanout                    0.894859                       # average fanout of values written-back
system.cpu0.iew.wb_producers                484296213                       # num instructions producing a value
system.cpu0.iew.wb_rate                      0.542579                       # insts written-back per cycle
system.cpu0.iew.wb_sent                    1276277110                       # cumulative count of insts sent to commit
system.cpu0.int_regfile_reads              1575936135                       # number of integer regfile reads
system.cpu0.int_regfile_writes              817899048                       # number of integer regfile writes
system.cpu0.ipc                              0.531665                       # IPC: Instructions Per Cycle
system.cpu0.ipc_total                        0.531665                       # IPC: Total IPC of All Threads
system.cpu0.iq.FU_type_0::No_OpClass          2106213      0.16%      0.16% # Type of FU issued
system.cpu0.iq.FU_type_0::IntAlu            715724658     55.38%     55.54% # Type of FU issued
system.cpu0.iq.FU_type_0::IntMult            11833387      0.92%     56.46% # Type of FU issued
system.cpu0.iq.FU_type_0::IntDiv              2100408      0.16%     56.62% # Type of FU issued
system.cpu0.iq.FU_type_0::FloatAdd                  0      0.00%     56.62% # Type of FU issued
system.cpu0.iq.FU_type_0::FloatCmp                  4      0.00%     56.62% # Type of FU issued
system.cpu0.iq.FU_type_0::FloatCvt                 12      0.00%     56.62% # Type of FU issued
system.cpu0.iq.FU_type_0::FloatMult                 0      0.00%     56.62% # Type of FU issued
system.cpu0.iq.FU_type_0::FloatMultAcc              0      0.00%     56.62% # Type of FU issued
system.cpu0.iq.FU_type_0::FloatDiv                  2      0.00%     56.62% # Type of FU issued
system.cpu0.iq.FU_type_0::FloatMisc                 4      0.00%     56.62% # Type of FU issued
system.cpu0.iq.FU_type_0::FloatSqrt                 0      0.00%     56.62% # Type of FU issued
system.cpu0.iq.FU_type_0::SimdAdd                   0      0.00%     56.62% # Type of FU issued
system.cpu0.iq.FU_type_0::SimdAddAcc                0      0.00%     56.62% # Type of FU issued
system.cpu0.iq.FU_type_0::SimdAlu                   0      0.00%     56.62% # Type of FU issued
system.cpu0.iq.FU_type_0::SimdCmp                   0      0.00%     56.62% # Type of FU issued
system.cpu0.iq.FU_type_0::SimdCvt                   0      0.00%     56.62% # Type of FU issued
system.cpu0.iq.FU_type_0::SimdMisc                  0      0.00%     56.62% # Type of FU issued
system.cpu0.iq.FU_type_0::SimdMult                  0      0.00%     56.62% # Type of FU issued
system.cpu0.iq.FU_type_0::SimdMultAcc               0      0.00%     56.62% # Type of FU issued
system.cpu0.iq.FU_type_0::SimdShift                 0      0.00%     56.62% # Type of FU issued
system.cpu0.iq.FU_type_0::SimdShiftAcc              0      0.00%     56.62% # Type of FU issued
system.cpu0.iq.FU_type_0::SimdDiv                   0      0.00%     56.62% # Type of FU issued
system.cpu0.iq.FU_type_0::SimdSqrt                  0      0.00%     56.62% # Type of FU issued
system.cpu0.iq.FU_type_0::SimdFloatAdd              0      0.00%     56.62% # Type of FU issued
system.cpu0.iq.FU_type_0::SimdFloatAlu              0      0.00%     56.62% # Type of FU issued
system.cpu0.iq.FU_type_0::SimdFloatCmp              0      0.00%     56.62% # Type of FU issued
system.cpu0.iq.FU_type_0::SimdFloatCvt              0      0.00%     56.62% # Type of FU issued
system.cpu0.iq.FU_type_0::SimdFloatDiv              0      0.00%     56.62% # Type of FU issued
system.cpu0.iq.FU_type_0::SimdFloatMisc             0      0.00%     56.62% # Type of FU issued
system.cpu0.iq.FU_type_0::SimdFloatMult             0      0.00%     56.62% # Type of FU issued
system.cpu0.iq.FU_type_0::SimdFloatMultAcc            0      0.00%     56.62% # Type of FU issued
system.cpu0.iq.FU_type_0::SimdFloatSqrt             0      0.00%     56.62% # Type of FU issued
system.cpu0.iq.FU_type_0::SimdReduceAdd             0      0.00%     56.62% # Type of FU issued
system.cpu0.iq.FU_type_0::SimdReduceAlu             0      0.00%     56.62% # Type of FU issued
system.cpu0.iq.FU_type_0::SimdReduceCmp             0      0.00%     56.62% # Type of FU issued
system.cpu0.iq.FU_type_0::SimdFloatReduceAdd            0      0.00%     56.62% # Type of FU issued
system.cpu0.iq.FU_type_0::SimdFloatReduceCmp            0      0.00%     56.62% # Type of FU issued
system.cpu0.iq.FU_type_0::SimdAes                   0      0.00%     56.62% # Type of FU issued
system.cpu0.iq.FU_type_0::SimdAesMix                0      0.00%     56.62% # Type of FU issued
system.cpu0.iq.FU_type_0::SimdSha1Hash              0      0.00%     56.62% # Type of FU issued
system.cpu0.iq.FU_type_0::SimdSha1Hash2             0      0.00%     56.62% # Type of FU issued
system.cpu0.iq.FU_type_0::SimdSha256Hash            0      0.00%     56.62% # Type of FU issued
system.cpu0.iq.FU_type_0::SimdSha256Hash2            0      0.00%     56.62% # Type of FU issued
system.cpu0.iq.FU_type_0::SimdShaSigma2             0      0.00%     56.62% # Type of FU issued
system.cpu0.iq.FU_type_0::SimdShaSigma3             0      0.00%     56.62% # Type of FU issued
system.cpu0.iq.FU_type_0::SimdPredAlu               0      0.00%     56.62% # Type of FU issued
system.cpu0.iq.FU_type_0::MemRead           411913340     31.87%     88.49% # Type of FU issued
system.cpu0.iq.FU_type_0::MemWrite          148720618     11.51%    100.00% # Type of FU issued
system.cpu0.iq.FU_type_0::FloatMemRead             10      0.00%    100.00% # Type of FU issued
system.cpu0.iq.FU_type_0::FloatMemWrite            20      0.00%    100.00% # Type of FU issued
system.cpu0.iq.FU_type_0::IprAccess                 0      0.00%    100.00% # Type of FU issued
system.cpu0.iq.FU_type_0::InstPrefetch              0      0.00%    100.00% # Type of FU issued
system.cpu0.iq.FU_type_0::total            1292398676                       # Type of FU issued
system.cpu0.iq.fp_alu_accesses                     55                       # Number of floating point alu accesses
system.cpu0.iq.fp_inst_queue_reads                107                       # Number of floating instruction queue reads
system.cpu0.iq.fp_inst_queue_wakeup_accesses           50                       # Number of floating instruction queue wakeup accesses
system.cpu0.iq.fp_inst_queue_writes                50                       # Number of floating instruction queue writes
system.cpu0.iq.fu_busy_cnt                    1977554                       # FU busy when requested
system.cpu0.iq.fu_busy_rate                  0.001530                       # FU busy rate (busy events/executed inst)
system.cpu0.iq.fu_full::No_OpClass                  0      0.00%      0.00% # attempts to use FU when none available
system.cpu0.iq.fu_full::IntAlu                 376377     19.03%     19.03% # attempts to use FU when none available
system.cpu0.iq.fu_full::IntMult                     0      0.00%     19.03% # attempts to use FU when none available
system.cpu0.iq.fu_full::IntDiv                      0      0.00%     19.03% # attempts to use FU when none available
system.cpu0.iq.fu_full::FloatAdd                    0      0.00%     19.03% # attempts to use FU when none available
system.cpu0.iq.fu_full::FloatCmp                    0      0.00%     19.03% # attempts to use FU when none available
system.cpu0.iq.fu_full::FloatCvt                    0      0.00%     19.03% # attempts to use FU when none available
system.cpu0.iq.fu_full::FloatMult                   0      0.00%     19.03% # attempts to use FU when none available
system.cpu0.iq.fu_full::FloatMultAcc                0      0.00%     19.03% # attempts to use FU when none available
system.cpu0.iq.fu_full::FloatDiv                    0      0.00%     19.03% # attempts to use FU when none available
system.cpu0.iq.fu_full::FloatMisc                   0      0.00%     19.03% # attempts to use FU when none available
system.cpu0.iq.fu_full::FloatSqrt                   0      0.00%     19.03% # attempts to use FU when none available
system.cpu0.iq.fu_full::SimdAdd                     0      0.00%     19.03% # attempts to use FU when none available
system.cpu0.iq.fu_full::SimdAddAcc                  0      0.00%     19.03% # attempts to use FU when none available
system.cpu0.iq.fu_full::SimdAlu                     0      0.00%     19.03% # attempts to use FU when none available
system.cpu0.iq.fu_full::SimdCmp                     0      0.00%     19.03% # attempts to use FU when none available
system.cpu0.iq.fu_full::SimdCvt                     0      0.00%     19.03% # attempts to use FU when none available
system.cpu0.iq.fu_full::SimdMisc                    0      0.00%     19.03% # attempts to use FU when none available
system.cpu0.iq.fu_full::SimdMult                    0      0.00%     19.03% # attempts to use FU when none available
system.cpu0.iq.fu_full::SimdMultAcc                 0      0.00%     19.03% # attempts to use FU when none available
system.cpu0.iq.fu_full::SimdShift                   0      0.00%     19.03% # attempts to use FU when none available
system.cpu0.iq.fu_full::SimdShiftAcc                0      0.00%     19.03% # attempts to use FU when none available
system.cpu0.iq.fu_full::SimdDiv                     0      0.00%     19.03% # attempts to use FU when none available
system.cpu0.iq.fu_full::SimdSqrt                    0      0.00%     19.03% # attempts to use FU when none available
system.cpu0.iq.fu_full::SimdFloatAdd                0      0.00%     19.03% # attempts to use FU when none available
system.cpu0.iq.fu_full::SimdFloatAlu                0      0.00%     19.03% # attempts to use FU when none available
system.cpu0.iq.fu_full::SimdFloatCmp                0      0.00%     19.03% # attempts to use FU when none available
system.cpu0.iq.fu_full::SimdFloatCvt                0      0.00%     19.03% # attempts to use FU when none available
system.cpu0.iq.fu_full::SimdFloatDiv                0      0.00%     19.03% # attempts to use FU when none available
system.cpu0.iq.fu_full::SimdFloatMisc               0      0.00%     19.03% # attempts to use FU when none available
system.cpu0.iq.fu_full::SimdFloatMult               0      0.00%     19.03% # attempts to use FU when none available
system.cpu0.iq.fu_full::SimdFloatMultAcc            0      0.00%     19.03% # attempts to use FU when none available
system.cpu0.iq.fu_full::SimdFloatSqrt               0      0.00%     19.03% # attempts to use FU when none available
system.cpu0.iq.fu_full::SimdReduceAdd               0      0.00%     19.03% # attempts to use FU when none available
system.cpu0.iq.fu_full::SimdReduceAlu               0      0.00%     19.03% # attempts to use FU when none available
system.cpu0.iq.fu_full::SimdReduceCmp               0      0.00%     19.03% # attempts to use FU when none available
system.cpu0.iq.fu_full::SimdFloatReduceAdd            0      0.00%     19.03% # attempts to use FU when none available
system.cpu0.iq.fu_full::SimdFloatReduceCmp            0      0.00%     19.03% # attempts to use FU when none available
system.cpu0.iq.fu_full::SimdAes                     0      0.00%     19.03% # attempts to use FU when none available
system.cpu0.iq.fu_full::SimdAesMix                  0      0.00%     19.03% # attempts to use FU when none available
system.cpu0.iq.fu_full::SimdSha1Hash                0      0.00%     19.03% # attempts to use FU when none available
system.cpu0.iq.fu_full::SimdSha1Hash2               0      0.00%     19.03% # attempts to use FU when none available
system.cpu0.iq.fu_full::SimdSha256Hash              0      0.00%     19.03% # attempts to use FU when none available
system.cpu0.iq.fu_full::SimdSha256Hash2             0      0.00%     19.03% # attempts to use FU when none available
system.cpu0.iq.fu_full::SimdShaSigma2               0      0.00%     19.03% # attempts to use FU when none available
system.cpu0.iq.fu_full::SimdShaSigma3               0      0.00%     19.03% # attempts to use FU when none available
system.cpu0.iq.fu_full::SimdPredAlu                 0      0.00%     19.03% # attempts to use FU when none available
system.cpu0.iq.fu_full::MemRead               1296254     65.55%     84.58% # attempts to use FU when none available
system.cpu0.iq.fu_full::MemWrite               304920     15.42%    100.00% # attempts to use FU when none available
system.cpu0.iq.fu_full::FloatMemRead                1      0.00%    100.00% # attempts to use FU when none available
system.cpu0.iq.fu_full::FloatMemWrite               2      0.00%    100.00% # attempts to use FU when none available
system.cpu0.iq.fu_full::IprAccess                   0      0.00%    100.00% # attempts to use FU when none available
system.cpu0.iq.fu_full::InstPrefetch                0      0.00%    100.00% # attempts to use FU when none available
system.cpu0.iq.int_alu_accesses            1292269962                       # Number of integer alu accesses
system.cpu0.iq.int_inst_queue_reads        4792262537                       # Number of integer instruction queue reads
system.cpu0.iq.int_inst_queue_wakeup_accesses   1276178646                       # Number of integer instruction queue wakeup accesses
system.cpu0.iq.int_inst_queue_writes       1343571862                       # Number of integer instruction queue writes
system.cpu0.iq.iqInstsAdded                1294398957                       # Number of instructions added to the IQ (excludes non-spec)
system.cpu0.iq.iqInstsIssued               1292398676                       # Number of instructions issued
system.cpu0.iq.iqNonSpecInstsAdded            3161140                       # Number of non-speculative instructions added to the IQ
system.cpu0.iq.iqSquashedInstsExamined       45998688                       # Number of squashed instructions iterated over during squash; mainly for profiling
system.cpu0.iq.iqSquashedInstsIssued           134801                       # Number of squashed instructions issued
system.cpu0.iq.iqSquashedNonSpecRemoved           469                       # Number of squashed non-spec instructions that were removed
system.cpu0.iq.iqSquashedOperandsExamined     23050369                       # Number of squashed operands that are examined and possibly removed from graph
system.cpu0.iq.issued_per_cycle::samples   2205352938                       # Number of insts issued each cycle
system.cpu0.iq.issued_per_cycle::mean        0.586028                       # Number of insts issued each cycle
system.cpu0.iq.issued_per_cycle::stdev       0.801864                       # Number of insts issued each cycle
system.cpu0.iq.issued_per_cycle::underflows            0      0.00%      0.00% # Number of insts issued each cycle
system.cpu0.iq.issued_per_cycle::0         1254817708     56.90%     56.90% # Number of insts issued each cycle
system.cpu0.iq.issued_per_cycle::1          681555317     30.90%     87.80% # Number of insts issued each cycle
system.cpu0.iq.issued_per_cycle::2          213567763      9.68%     97.49% # Number of insts issued each cycle
system.cpu0.iq.issued_per_cycle::3           43657830      1.98%     99.47% # Number of insts issued each cycle
system.cpu0.iq.issued_per_cycle::4            8571637      0.39%     99.86% # Number of insts issued each cycle
system.cpu0.iq.issued_per_cycle::5            1484119      0.07%     99.92% # Number of insts issued each cycle
system.cpu0.iq.issued_per_cycle::6            1054894      0.05%     99.97% # Number of insts issued each cycle
system.cpu0.iq.issued_per_cycle::7             451524      0.02%     99.99% # Number of insts issued each cycle
system.cpu0.iq.issued_per_cycle::8             192146      0.01%    100.00% # Number of insts issued each cycle
system.cpu0.iq.issued_per_cycle::overflows            0      0.00%    100.00% # Number of insts issued each cycle
system.cpu0.iq.issued_per_cycle::min_value            0                       # Number of insts issued each cycle
system.cpu0.iq.issued_per_cycle::max_value            8                       # Number of insts issued each cycle
system.cpu0.iq.issued_per_cycle::total     2205352938                       # Number of insts issued each cycle
system.cpu0.iq.rate                          0.549475                       # Inst issue rate
system.cpu0.iq.vec_alu_accesses                     0                       # Number of vector alu accesses
system.cpu0.iq.vec_inst_queue_reads                 0                       # Number of vector instruction queue reads
system.cpu0.iq.vec_inst_queue_wakeup_accesses            0                       # Number of vector instruction queue wakeup accesses
system.cpu0.iq.vec_inst_queue_writes                0                       # Number of vector instruction queue writes
system.cpu0.itb.accesses                            0                       # DTB accesses
system.cpu0.itb.hits                                0                       # DTB hits
system.cpu0.itb.misses                              0                       # DTB misses
system.cpu0.itb.read_accesses                       0                       # DTB read accesses
system.cpu0.itb.read_hits                           0                       # DTB read hits
system.cpu0.itb.read_misses                         0                       # DTB read misses
system.cpu0.itb.write_accesses                      0                       # DTB write accesses
system.cpu0.itb.write_hits                          0                       # DTB write hits
system.cpu0.itb.write_misses                        0                       # DTB write misses
system.cpu0.memDep0.conflictingLoads         13616173                       # Number of conflicting loads.
system.cpu0.memDep0.conflictingStores         1592889                       # Number of conflicting stores.
system.cpu0.memDep0.insertedLoads           409200544                       # Number of loads inserted to the mem dependence unit.
system.cpu0.memDep0.insertedStores          150183236                       # Number of stores inserted to the mem dependence unit.
system.cpu0.misc_regfile_reads                   2075                       # number of misc regfile reads
system.cpu0.misc_regfile_writes                    22                       # number of misc regfile writes
system.cpu0.numCycles                      2352060310                       # number of cpu cycles simulated
system.cpu0.numWorkItemsCompleted                   0                       # number of work items this cpu completed
system.cpu0.numWorkItemsStarted                     0                       # number of work items this cpu started
system.cpu0.quiesceCycles                     9987160                       # Total number of cycles that CPU has spent quiesced or waiting for an interrupt
system.cpu0.rename.BlockCycles              238651617                       # Number of cycles rename is blocking
system.cpu0.rename.CommittedMaps            800535261                       # Number of HB maps that are committed
system.cpu0.rename.IQFullEvents               8766176                       # Number of times rename has blocked due to IQ full
system.cpu0.rename.IdleCycles               981056831                       # Number of cycles rename is idle
system.cpu0.rename.LQFullEvents              27686150                       # Number of times rename has blocked due to LQ full
system.cpu0.rename.ROBFullEvents                10857                       # Number of times rename has blocked due to ROB full
system.cpu0.rename.RenameLookups           1604912753                       # Number of register rename lookups that rename has made
system.cpu0.rename.RenamedInsts            1310350012                       # Number of instructions processed by rename
system.cpu0.rename.RenamedOperands          846958782                       # Number of destination operands rename has renamed
system.cpu0.rename.RunCycles                910582047                       # Number of cycles rename is running
system.cpu0.rename.SQFullEvents              29731946                       # Number of times rename has blocked due to SQ full
system.cpu0.rename.SquashCycles               9081035                       # Number of cycles rename is squashing
system.cpu0.rename.UnblockCycles             65817855                       # Number of cycles rename is unblocking
system.cpu0.rename.UndoneMaps                46423516                       # Number of HB maps that are undone due to squashing
system.cpu0.rename.fp_rename_lookups               44                       # Number of floating rename lookups
system.cpu0.rename.int_rename_lookups      1604912709                       # Number of integer rename lookups
system.cpu0.rename.serializeStallCycles        163553                       # count of cycles rename stalled for serializing inst
system.cpu0.rename.serializingInsts              6285                       # count of serializing insts renamed
system.cpu0.rename.skidInsts                 18681402                       # count of insts added to the skid buffer
system.cpu0.rename.tempSerializingInsts          6231                       # count of temporary serializing insts renamed
system.cpu0.rob.rob_reads                  3459405311                       # The number of ROB reads
system.cpu0.rob.rob_writes                 2607024511                       # The number of ROB writes
system.cpu0.timesIdled                       31277021                       # Number of times that the entire CPU went into an idle state and unscheduled itself
system.cpu0.workload.numSyscalls                 2042                       # Number of system calls
system.cpu1.branchPred.BTBCorrect                   0                       # Number of correct BTB predictions (this stat may not work properly.
system.cpu1.branchPred.BTBHitPct            87.960008                       # BTB Hit Percentage
system.cpu1.branchPred.BTBHits               12651595                       # Number of BTB hits
system.cpu1.branchPred.BTBLookups            14383349                       # Number of BTB lookups
system.cpu1.branchPred.RASInCorrect                 0                       # Number of incorrect RAS predictions.
system.cpu1.branchPred.condIncorrect          2069848                       # Number of conditional branches incorrect
system.cpu1.branchPred.condPredicted         19417414                       # Number of conditional branches predicted
system.cpu1.branchPred.indirectHits            662930                       # Number of indirect target hits.
system.cpu1.branchPred.indirectLookups         774781                       # Number of indirect predictor lookups.
system.cpu1.branchPred.indirectMisses          111851                       # Number of indirect misses.
system.cpu1.branchPred.lookups               22611049                       # Number of BP lookups
system.cpu1.branchPred.usedRAS                      0                       # Number of times the RAS was used to get a target.
system.cpu1.branchPredindirectMispredicted        41751                       # Number of mispredicted indirect branches.
system.cpu1.commit.amos                       1050255                       # Number of atomic instructions committed
system.cpu1.commit.branchMispredicts          1497871                       # The number of times a branch was mispredicted
system.cpu1.commit.branches                  16227159                       # Number of branches committed
system.cpu1.commit.bw_lim_events              2332962                       # number cycles where commit BW limit reached
system.cpu1.commit.commitNonSpecStalls        3151461                       # The number of times commit has been forced to stall to communicate backwards
system.cpu1.commit.commitSquashedInsts       14515154                       # The number of squashed insts skipped by commit
system.cpu1.commit.committedInsts            67671029                       # Number of instructions committed
system.cpu1.commit.committedOps              68721483                       # Number of ops (including micro ops) committed
system.cpu1.commit.committed_per_cycle::samples    306453555                       # Number of insts commited each cycle
system.cpu1.commit.committed_per_cycle::mean     0.224248                       # Number of insts commited each cycle
system.cpu1.commit.committed_per_cycle::stdev     0.952125                       # Number of insts commited each cycle
system.cpu1.commit.committed_per_cycle::underflows            0      0.00%      0.00% # Number of insts commited each cycle
system.cpu1.commit.committed_per_cycle::0    278211291     90.78%     90.78% # Number of insts commited each cycle
system.cpu1.commit.committed_per_cycle::1     14057853      4.59%     95.37% # Number of insts commited each cycle
system.cpu1.commit.committed_per_cycle::2      5226626      1.71%     97.08% # Number of insts commited each cycle
system.cpu1.commit.committed_per_cycle::3      4065932      1.33%     98.40% # Number of insts commited each cycle
system.cpu1.commit.committed_per_cycle::4       905732      0.30%     98.70% # Number of insts commited each cycle
system.cpu1.commit.committed_per_cycle::5       430043      0.14%     98.84% # Number of insts commited each cycle
system.cpu1.commit.committed_per_cycle::6       986069      0.32%     99.16% # Number of insts commited each cycle
system.cpu1.commit.committed_per_cycle::7       237047      0.08%     99.24% # Number of insts commited each cycle
system.cpu1.commit.committed_per_cycle::8      2332962      0.76%    100.00% # Number of insts commited each cycle
system.cpu1.commit.committed_per_cycle::overflows            0      0.00%    100.00% # Number of insts commited each cycle
system.cpu1.commit.committed_per_cycle::min_value            0                       # Number of insts commited each cycle
system.cpu1.commit.committed_per_cycle::max_value            8                       # Number of insts commited each cycle
system.cpu1.commit.committed_per_cycle::total    306453555                       # Number of insts commited each cycle
system.cpu1.commit.fp_insts                        12                       # Number of committed floating point instructions.
system.cpu1.commit.function_calls             1074635                       # Number of function calls committed.
system.cpu1.commit.int_insts                 65706112                       # Number of committed integer instructions.
system.cpu1.commit.loads                     16750591                       # Number of loads committed
system.cpu1.commit.membars                    2100543                       # Number of memory barriers committed
system.cpu1.commit.op_class_0::No_OpClass      2100543      3.06%      3.06% # Class of committed instruction
system.cpu1.commit.op_class_0::IntAlu        43596614     63.44%     66.50% # Class of committed instruction
system.cpu1.commit.op_class_0::IntMult             44      0.00%     66.50% # Class of committed instruction
system.cpu1.commit.op_class_0::IntDiv              88      0.00%     66.50% # Class of committed instruction
system.cpu1.commit.op_class_0::FloatAdd             0      0.00%     66.50% # Class of committed instruction
system.cpu1.commit.op_class_0::FloatCmp             0      0.00%     66.50% # Class of committed instruction
system.cpu1.commit.op_class_0::FloatCvt             0      0.00%     66.50% # Class of committed instruction
system.cpu1.commit.op_class_0::FloatMult            0      0.00%     66.50% # Class of committed instruction
system.cpu1.commit.op_class_0::FloatMultAcc            0      0.00%     66.50% # Class of committed instruction
system.cpu1.commit.op_class_0::FloatDiv             0      0.00%     66.50% # Class of committed instruction
system.cpu1.commit.op_class_0::FloatMisc            0      0.00%     66.50% # Class of committed instruction
system.cpu1.commit.op_class_0::FloatSqrt            0      0.00%     66.50% # Class of committed instruction
system.cpu1.commit.op_class_0::SimdAdd              0      0.00%     66.50% # Class of committed instruction
system.cpu1.commit.op_class_0::SimdAddAcc            0      0.00%     66.50% # Class of committed instruction
system.cpu1.commit.op_class_0::SimdAlu              0      0.00%     66.50% # Class of committed instruction
system.cpu1.commit.op_class_0::SimdCmp              0      0.00%     66.50% # Class of committed instruction
system.cpu1.commit.op_class_0::SimdCvt              0      0.00%     66.50% # Class of committed instruction
system.cpu1.commit.op_class_0::SimdMisc             0      0.00%     66.50% # Class of committed instruction
system.cpu1.commit.op_class_0::SimdMult             0      0.00%     66.50% # Class of committed instruction
system.cpu1.commit.op_class_0::SimdMultAcc            0      0.00%     66.50% # Class of committed instruction
system.cpu1.commit.op_class_0::SimdShift            0      0.00%     66.50% # Class of committed instruction
system.cpu1.commit.op_class_0::SimdShiftAcc            0      0.00%     66.50% # Class of committed instruction
system.cpu1.commit.op_class_0::SimdDiv              0      0.00%     66.50% # Class of committed instruction
system.cpu1.commit.op_class_0::SimdSqrt             0      0.00%     66.50% # Class of committed instruction
system.cpu1.commit.op_class_0::SimdFloatAdd            0      0.00%     66.50% # Class of committed instruction
system.cpu1.commit.op_class_0::SimdFloatAlu            0      0.00%     66.50% # Class of committed instruction
system.cpu1.commit.op_class_0::SimdFloatCmp            0      0.00%     66.50% # Class of committed instruction
system.cpu1.commit.op_class_0::SimdFloatCvt            0      0.00%     66.50% # Class of committed instruction
system.cpu1.commit.op_class_0::SimdFloatDiv            0      0.00%     66.50% # Class of committed instruction
system.cpu1.commit.op_class_0::SimdFloatMisc            0      0.00%     66.50% # Class of committed instruction
system.cpu1.commit.op_class_0::SimdFloatMult            0      0.00%     66.50% # Class of committed instruction
system.cpu1.commit.op_class_0::SimdFloatMultAcc            0      0.00%     66.50% # Class of committed instruction
system.cpu1.commit.op_class_0::SimdFloatSqrt            0      0.00%     66.50% # Class of committed instruction
system.cpu1.commit.op_class_0::SimdReduceAdd            0      0.00%     66.50% # Class of committed instruction
system.cpu1.commit.op_class_0::SimdReduceAlu            0      0.00%     66.50% # Class of committed instruction
system.cpu1.commit.op_class_0::SimdReduceCmp            0      0.00%     66.50% # Class of committed instruction
system.cpu1.commit.op_class_0::SimdFloatReduceAdd            0      0.00%     66.50% # Class of committed instruction
system.cpu1.commit.op_class_0::SimdFloatReduceCmp            0      0.00%     66.50% # Class of committed instruction
system.cpu1.commit.op_class_0::SimdAes              0      0.00%     66.50% # Class of committed instruction
system.cpu1.commit.op_class_0::SimdAesMix            0      0.00%     66.50% # Class of committed instruction
system.cpu1.commit.op_class_0::SimdSha1Hash            0      0.00%     66.50% # Class of committed instruction
system.cpu1.commit.op_class_0::SimdSha1Hash2            0      0.00%     66.50% # Class of committed instruction
system.cpu1.commit.op_class_0::SimdSha256Hash            0      0.00%     66.50% # Class of committed instruction
system.cpu1.commit.op_class_0::SimdSha256Hash2            0      0.00%     66.50% # Class of committed instruction
system.cpu1.commit.op_class_0::SimdShaSigma2            0      0.00%     66.50% # Class of committed instruction
system.cpu1.commit.op_class_0::SimdShaSigma3            0      0.00%     66.50% # Class of committed instruction
system.cpu1.commit.op_class_0::SimdPredAlu            0      0.00%     66.50% # Class of committed instruction
system.cpu1.commit.op_class_0::MemRead       17800846     25.90%     92.40% # Class of committed instruction
system.cpu1.commit.op_class_0::MemWrite       5223336      7.60%    100.00% # Class of committed instruction
system.cpu1.commit.op_class_0::FloatMemRead            0      0.00%    100.00% # Class of committed instruction
system.cpu1.commit.op_class_0::FloatMemWrite           12      0.00%    100.00% # Class of committed instruction
system.cpu1.commit.op_class_0::IprAccess            0      0.00%    100.00% # Class of committed instruction
system.cpu1.commit.op_class_0::InstPrefetch            0      0.00%    100.00% # Class of committed instruction
system.cpu1.commit.op_class_0::total         68721483                       # Class of committed instruction
system.cpu1.commit.refs                      23024194                       # Number of memory references committed
system.cpu1.commit.swp_count                        0                       # Number of s/w prefetches committed
system.cpu1.commit.vec_insts                        0                       # Number of committed Vector instructions.
system.cpu1.committedInsts                   67671029                       # Number of Instructions Simulated
system.cpu1.committedOps                     68721483                       # Number of Ops (including micro ops) Simulated
system.cpu1.cpi                              4.578548                       # CPI: Cycles Per Instruction
system.cpu1.cpi_total                        4.578548                       # CPI: Total CPI of All Threads
system.cpu1.decode.BlockedCycles            245213719                       # Number of cycles decode is blocked
system.cpu1.decode.BranchMispred               604719                       # Number of times decode detected a branch misprediction
system.cpu1.decode.BranchResolved            11927853                       # Number of times decode resolved a branch
system.cpu1.decode.DecodedInsts              88918300                       # Number of instructions handled by decode
system.cpu1.decode.IdleCycles                17605783                       # Number of cycles decode is idle
system.cpu1.decode.RunCycles                 42342252                       # Number of cycles decode is running
system.cpu1.decode.SquashCycles               1499394                       # Number of cycles decode is squashing
system.cpu1.decode.SquashedInsts              1408868                       # Number of squashed instructions handled by decode
system.cpu1.decode.UnblockCycles              2615839                       # Number of cycles decode is unblocking
system.cpu1.dtb.accesses                            0                       # DTB accesses
system.cpu1.dtb.hits                                0                       # DTB hits
system.cpu1.dtb.misses                              0                       # DTB misses
system.cpu1.dtb.read_accesses                       0                       # DTB read accesses
system.cpu1.dtb.read_hits                           0                       # DTB read hits
system.cpu1.dtb.read_misses                         0                       # DTB read misses
system.cpu1.dtb.write_accesses                      0                       # DTB write accesses
system.cpu1.dtb.write_hits                          0                       # DTB write hits
system.cpu1.dtb.write_misses                        0                       # DTB write misses
system.cpu1.fetch.Branches                   22611049                       # Number of branches that fetch encountered
system.cpu1.fetch.CacheLines                 15083093                       # Number of cache lines fetched
system.cpu1.fetch.Cycles                    290488956                       # Number of cycles fetch has run and was not squashing or blocked
system.cpu1.fetch.IcacheSquashes               188404                       # Number of outstanding Icache misses that were squashed
system.cpu1.fetch.Insts                      96046405                       # Number of instructions fetch has processed
system.cpu1.fetch.MiscStallCycles                   1                       # Number of cycles fetch has spent waiting on interrupts, or bad addresses, or out of MSHRs
system.cpu1.fetch.SquashCycles                4142742                       # Number of cycles fetch has spent squashing
system.cpu1.fetch.branchRate                 0.072978                       # Number of branch fetches per cycle
system.cpu1.fetch.icacheStallCycles          16716659                       # Number of cycles fetch is stalled on an Icache miss
system.cpu1.fetch.predictedBranches          13314525                       # Number of branches that fetch has predicted taken
system.cpu1.fetch.rate                       0.309992                       # Number of inst fetches per cycle
system.cpu1.fetch.rateDist::samples         309276987                       # Number of instructions fetched each cycle (Total)
system.cpu1.fetch.rateDist::mean             0.315527                       # Number of instructions fetched each cycle (Total)
system.cpu1.fetch.rateDist::stdev            0.762614                       # Number of instructions fetched each cycle (Total)
system.cpu1.fetch.rateDist::underflows              0      0.00%      0.00% # Number of instructions fetched each cycle (Total)
system.cpu1.fetch.rateDist::0               248398198     80.32%     80.32% # Number of instructions fetched each cycle (Total)
system.cpu1.fetch.rateDist::1                38167767     12.34%     92.66% # Number of instructions fetched each cycle (Total)
system.cpu1.fetch.rateDist::2                12823807      4.15%     96.80% # Number of instructions fetched each cycle (Total)
system.cpu1.fetch.rateDist::3                 7244164      2.34%     99.15% # Number of instructions fetched each cycle (Total)
system.cpu1.fetch.rateDist::4                 1433108      0.46%     99.61% # Number of instructions fetched each cycle (Total)
system.cpu1.fetch.rateDist::5                  960077      0.31%     99.92% # Number of instructions fetched each cycle (Total)
system.cpu1.fetch.rateDist::6                  246178      0.08%    100.00% # Number of instructions fetched each cycle (Total)
system.cpu1.fetch.rateDist::7                    2027      0.00%    100.00% # Number of instructions fetched each cycle (Total)
system.cpu1.fetch.rateDist::8                    1661      0.00%    100.00% # Number of instructions fetched each cycle (Total)
system.cpu1.fetch.rateDist::overflows               0      0.00%    100.00% # Number of instructions fetched each cycle (Total)
system.cpu1.fetch.rateDist::min_value               0                       # Number of instructions fetched each cycle (Total)
system.cpu1.fetch.rateDist::max_value               8                       # Number of instructions fetched each cycle (Total)
system.cpu1.fetch.rateDist::total           309276987                       # Number of instructions fetched each cycle (Total)
system.cpu1.fp_regfile_reads                       12                       # number of floating regfile reads
system.cpu1.idleCycles                         558101                       # Total number of cycles that the CPU has spent unscheduled due to idling
system.cpu1.iew.branchMispredicts             1569183                       # Number of branch mispredicts detected at execute
system.cpu1.iew.exec_branches                18204254                       # Number of branches executed
system.cpu1.iew.exec_nop                            0                       # number of nop insts executed
system.cpu1.iew.exec_rate                    0.249022                       # Inst execution rate
system.cpu1.iew.exec_refs                    25924129                       # number of memory reference insts executed
system.cpu1.iew.exec_stores                   6583398                       # Number of stores executed
system.cpu1.iew.exec_swp                            0                       # number of swp insts executed
system.cpu1.iew.iewBlockCycles              203278836                       # Number of cycles IEW is blocking
system.cpu1.iew.iewDispLoadInsts             20698747                       # Number of dispatched load instructions
system.cpu1.iew.iewDispNonSpecInsts           1211565                       # Number of dispatched non-speculative instructions
system.cpu1.iew.iewDispSquashedInsts          1384644                       # Number of squashed instructions skipped by dispatch
system.cpu1.iew.iewDispStoreInsts             7150987                       # Number of dispatched store instructions
system.cpu1.iew.iewDispatchedInsts           83211479                       # Number of instructions dispatched to IQ
system.cpu1.iew.iewExecLoadInsts             19340731                       # Number of load instructions executed
system.cpu1.iew.iewExecSquashedInsts          1342820                       # Number of squashed instructions skipped in execute
system.cpu1.iew.iewExecutedInsts             77155831                       # Number of executed instructions
system.cpu1.iew.iewIQFullEvents               1036193                       # Number of times the IQ has become full, causing a stall
system.cpu1.iew.iewIdleCycles                       0                       # Number of cycles IEW is idle
system.cpu1.iew.iewLSQFullEvents              7718069                       # Number of times the LSQ has become full, causing a stall
system.cpu1.iew.iewSquashCycles               1499394                       # Number of cycles IEW is squashing
system.cpu1.iew.iewUnblockCycles              9854155                       # Number of cycles IEW is unblocking
system.cpu1.iew.lsq.thread0.blockedLoads            0                       # Number of blocked loads due to partial load-store forwarding
system.cpu1.iew.lsq.thread0.cacheBlocked        94172                       # Number of times an access to memory failed due to the cache being blocked
system.cpu1.iew.lsq.thread0.forwLoads          706853                       # Number of loads that had data forwarded from stores
system.cpu1.iew.lsq.thread0.ignoredResponses        17763                       # Number of memory responses ignored because the instruction is squashed
system.cpu1.iew.lsq.thread0.invAddrLoads            0                       # Number of loads ignored due to an invalid address
system.cpu1.iew.lsq.thread0.invAddrSwpfs            0                       # Number of software prefetches ignored due to an invalid address
system.cpu1.iew.lsq.thread0.memOrderViolation         2121                       # Number of memory ordering violations
system.cpu1.iew.lsq.thread0.rescheduledLoads        10510                       # Number of loads that were rescheduled
system.cpu1.iew.lsq.thread0.squashedLoads      3948156                       # Number of loads squashed
system.cpu1.iew.lsq.thread0.squashedStores       877384                       # Number of stores squashed
system.cpu1.iew.memOrderViolationEvents          2121                       # Number of memory order violations
system.cpu1.iew.predictedNotTakenIncorrect       537457                       # Number of branches that were predicted not taken incorrectly
system.cpu1.iew.predictedTakenIncorrect       1031726                       # Number of branches that were predicted taken incorrectly
system.cpu1.iew.wb_consumers                 43612281                       # num instructions consuming a value
system.cpu1.iew.wb_count                     76049067                       # cumulative count of insts written-back
system.cpu1.iew.wb_fanout                    0.829111                       # average fanout of values written-back
system.cpu1.iew.wb_producers                 36159428                       # num instructions producing a value
system.cpu1.iew.wb_rate                      0.245450                       # insts written-back per cycle
system.cpu1.iew.wb_sent                      76101288                       # cumulative count of insts sent to commit
system.cpu1.int_regfile_reads                98195286                       # number of integer regfile reads
system.cpu1.int_regfile_writes               50886108                       # number of integer regfile writes
system.cpu1.ipc                              0.218410                       # IPC: Instructions Per Cycle
system.cpu1.ipc_total                        0.218410                       # IPC: Total IPC of All Threads
system.cpu1.iq.FU_type_0::No_OpClass          2100783      2.68%      2.68% # Type of FU issued
system.cpu1.iq.FU_type_0::IntAlu             50058453     63.77%     66.45% # Type of FU issued
system.cpu1.iq.FU_type_0::IntMult                  57      0.00%     66.45% # Type of FU issued
system.cpu1.iq.FU_type_0::IntDiv                   88      0.00%     66.45% # Type of FU issued
system.cpu1.iq.FU_type_0::FloatAdd                  0      0.00%     66.45% # Type of FU issued
system.cpu1.iq.FU_type_0::FloatCmp                  0      0.00%     66.45% # Type of FU issued
system.cpu1.iq.FU_type_0::FloatCvt                  0      0.00%     66.45% # Type of FU issued
system.cpu1.iq.FU_type_0::FloatMult                 0      0.00%     66.45% # Type of FU issued
system.cpu1.iq.FU_type_0::FloatMultAcc              0      0.00%     66.45% # Type of FU issued
system.cpu1.iq.FU_type_0::FloatDiv                  0      0.00%     66.45% # Type of FU issued
system.cpu1.iq.FU_type_0::FloatMisc                 0      0.00%     66.45% # Type of FU issued
system.cpu1.iq.FU_type_0::FloatSqrt                 0      0.00%     66.45% # Type of FU issued
system.cpu1.iq.FU_type_0::SimdAdd                   0      0.00%     66.45% # Type of FU issued
system.cpu1.iq.FU_type_0::SimdAddAcc                0      0.00%     66.45% # Type of FU issued
system.cpu1.iq.FU_type_0::SimdAlu                   0      0.00%     66.45% # Type of FU issued
system.cpu1.iq.FU_type_0::SimdCmp                   0      0.00%     66.45% # Type of FU issued
system.cpu1.iq.FU_type_0::SimdCvt                   0      0.00%     66.45% # Type of FU issued
system.cpu1.iq.FU_type_0::SimdMisc                  0      0.00%     66.45% # Type of FU issued
system.cpu1.iq.FU_type_0::SimdMult                  0      0.00%     66.45% # Type of FU issued
system.cpu1.iq.FU_type_0::SimdMultAcc               0      0.00%     66.45% # Type of FU issued
system.cpu1.iq.FU_type_0::SimdShift                 0      0.00%     66.45% # Type of FU issued
system.cpu1.iq.FU_type_0::SimdShiftAcc              0      0.00%     66.45% # Type of FU issued
system.cpu1.iq.FU_type_0::SimdDiv                   0      0.00%     66.45% # Type of FU issued
system.cpu1.iq.FU_type_0::SimdSqrt                  0      0.00%     66.45% # Type of FU issued
system.cpu1.iq.FU_type_0::SimdFloatAdd              0      0.00%     66.45% # Type of FU issued
system.cpu1.iq.FU_type_0::SimdFloatAlu              0      0.00%     66.45% # Type of FU issued
system.cpu1.iq.FU_type_0::SimdFloatCmp              0      0.00%     66.45% # Type of FU issued
system.cpu1.iq.FU_type_0::SimdFloatCvt              0      0.00%     66.45% # Type of FU issued
system.cpu1.iq.FU_type_0::SimdFloatDiv              0      0.00%     66.45% # Type of FU issued
system.cpu1.iq.FU_type_0::SimdFloatMisc             0      0.00%     66.45% # Type of FU issued
system.cpu1.iq.FU_type_0::SimdFloatMult             0      0.00%     66.45% # Type of FU issued
system.cpu1.iq.FU_type_0::SimdFloatMultAcc            0      0.00%     66.45% # Type of FU issued
system.cpu1.iq.FU_type_0::SimdFloatSqrt             0      0.00%     66.45% # Type of FU issued
system.cpu1.iq.FU_type_0::SimdReduceAdd             0      0.00%     66.45% # Type of FU issued
system.cpu1.iq.FU_type_0::SimdReduceAlu             0      0.00%     66.45% # Type of FU issued
system.cpu1.iq.FU_type_0::SimdReduceCmp             0      0.00%     66.45% # Type of FU issued
system.cpu1.iq.FU_type_0::SimdFloatReduceAdd            0      0.00%     66.45% # Type of FU issued
system.cpu1.iq.FU_type_0::SimdFloatReduceCmp            0      0.00%     66.45% # Type of FU issued
system.cpu1.iq.FU_type_0::SimdAes                   0      0.00%     66.45% # Type of FU issued
system.cpu1.iq.FU_type_0::SimdAesMix                0      0.00%     66.45% # Type of FU issued
system.cpu1.iq.FU_type_0::SimdSha1Hash              0      0.00%     66.45% # Type of FU issued
system.cpu1.iq.FU_type_0::SimdSha1Hash2             0      0.00%     66.45% # Type of FU issued
system.cpu1.iq.FU_type_0::SimdSha256Hash            0      0.00%     66.45% # Type of FU issued
system.cpu1.iq.FU_type_0::SimdSha256Hash2            0      0.00%     66.45% # Type of FU issued
system.cpu1.iq.FU_type_0::SimdShaSigma2             0      0.00%     66.45% # Type of FU issued
system.cpu1.iq.FU_type_0::SimdShaSigma3             0      0.00%     66.45% # Type of FU issued
system.cpu1.iq.FU_type_0::SimdPredAlu               0      0.00%     66.45% # Type of FU issued
system.cpu1.iq.FU_type_0::MemRead            20747682     26.43%     92.88% # Type of FU issued
system.cpu1.iq.FU_type_0::MemWrite            5591576      7.12%    100.00% # Type of FU issued
system.cpu1.iq.FU_type_0::FloatMemRead              0      0.00%    100.00% # Type of FU issued
system.cpu1.iq.FU_type_0::FloatMemWrite            12      0.00%    100.00% # Type of FU issued
system.cpu1.iq.FU_type_0::IprAccess                 0      0.00%    100.00% # Type of FU issued
system.cpu1.iq.FU_type_0::InstPrefetch              0      0.00%    100.00% # Type of FU issued
system.cpu1.iq.FU_type_0::total              78498651                       # Type of FU issued
system.cpu1.iq.fp_alu_accesses                     14                       # Number of floating point alu accesses
system.cpu1.iq.fp_inst_queue_reads                 26                       # Number of floating instruction queue reads
system.cpu1.iq.fp_inst_queue_wakeup_accesses           12                       # Number of floating instruction queue wakeup accesses
system.cpu1.iq.fp_inst_queue_writes                12                       # Number of floating instruction queue writes
system.cpu1.iq.fu_busy_cnt                    1629676                       # FU busy when requested
system.cpu1.iq.fu_busy_rate                  0.020761                       # FU busy rate (busy events/executed inst)
system.cpu1.iq.fu_full::No_OpClass                  0      0.00%      0.00% # attempts to use FU when none available
system.cpu1.iq.fu_full::IntAlu                 403979     24.79%     24.79% # attempts to use FU when none available
system.cpu1.iq.fu_full::IntMult                     0      0.00%     24.79% # attempts to use FU when none available
system.cpu1.iq.fu_full::IntDiv                      0      0.00%     24.79% # attempts to use FU when none available
system.cpu1.iq.fu_full::FloatAdd                    0      0.00%     24.79% # attempts to use FU when none available
system.cpu1.iq.fu_full::FloatCmp                    0      0.00%     24.79% # attempts to use FU when none available
system.cpu1.iq.fu_full::FloatCvt                    0      0.00%     24.79% # attempts to use FU when none available
system.cpu1.iq.fu_full::FloatMult                   0      0.00%     24.79% # attempts to use FU when none available
system.cpu1.iq.fu_full::FloatMultAcc                0      0.00%     24.79% # attempts to use FU when none available
system.cpu1.iq.fu_full::FloatDiv                    0      0.00%     24.79% # attempts to use FU when none available
system.cpu1.iq.fu_full::FloatMisc                   0      0.00%     24.79% # attempts to use FU when none available
system.cpu1.iq.fu_full::FloatSqrt                   0      0.00%     24.79% # attempts to use FU when none available
system.cpu1.iq.fu_full::SimdAdd                     0      0.00%     24.79% # attempts to use FU when none available
system.cpu1.iq.fu_full::SimdAddAcc                  0      0.00%     24.79% # attempts to use FU when none available
system.cpu1.iq.fu_full::SimdAlu                     0      0.00%     24.79% # attempts to use FU when none available
system.cpu1.iq.fu_full::SimdCmp                     0      0.00%     24.79% # attempts to use FU when none available
system.cpu1.iq.fu_full::SimdCvt                     0      0.00%     24.79% # attempts to use FU when none available
system.cpu1.iq.fu_full::SimdMisc                    0      0.00%     24.79% # attempts to use FU when none available
system.cpu1.iq.fu_full::SimdMult                    0      0.00%     24.79% # attempts to use FU when none available
system.cpu1.iq.fu_full::SimdMultAcc                 0      0.00%     24.79% # attempts to use FU when none available
system.cpu1.iq.fu_full::SimdShift                   0      0.00%     24.79% # attempts to use FU when none available
system.cpu1.iq.fu_full::SimdShiftAcc                0      0.00%     24.79% # attempts to use FU when none available
system.cpu1.iq.fu_full::SimdDiv                     0      0.00%     24.79% # attempts to use FU when none available
system.cpu1.iq.fu_full::SimdSqrt                    0      0.00%     24.79% # attempts to use FU when none available
system.cpu1.iq.fu_full::SimdFloatAdd                0      0.00%     24.79% # attempts to use FU when none available
system.cpu1.iq.fu_full::SimdFloatAlu                0      0.00%     24.79% # attempts to use FU when none available
system.cpu1.iq.fu_full::SimdFloatCmp                0      0.00%     24.79% # attempts to use FU when none available
system.cpu1.iq.fu_full::SimdFloatCvt                0      0.00%     24.79% # attempts to use FU when none available
system.cpu1.iq.fu_full::SimdFloatDiv                0      0.00%     24.79% # attempts to use FU when none available
system.cpu1.iq.fu_full::SimdFloatMisc               0      0.00%     24.79% # attempts to use FU when none available
system.cpu1.iq.fu_full::SimdFloatMult               0      0.00%     24.79% # attempts to use FU when none available
system.cpu1.iq.fu_full::SimdFloatMultAcc            0      0.00%     24.79% # attempts to use FU when none available
system.cpu1.iq.fu_full::SimdFloatSqrt               0      0.00%     24.79% # attempts to use FU when none available
system.cpu1.iq.fu_full::SimdReduceAdd               0      0.00%     24.79% # attempts to use FU when none available
system.cpu1.iq.fu_full::SimdReduceAlu               0      0.00%     24.79% # attempts to use FU when none available
system.cpu1.iq.fu_full::SimdReduceCmp               0      0.00%     24.79% # attempts to use FU when none available
system.cpu1.iq.fu_full::SimdFloatReduceAdd            0      0.00%     24.79% # attempts to use FU when none available
system.cpu1.iq.fu_full::SimdFloatReduceCmp            0      0.00%     24.79% # attempts to use FU when none available
system.cpu1.iq.fu_full::SimdAes                     0      0.00%     24.79% # attempts to use FU when none available
system.cpu1.iq.fu_full::SimdAesMix                  0      0.00%     24.79% # attempts to use FU when none available
system.cpu1.iq.fu_full::SimdSha1Hash                0      0.00%     24.79% # attempts to use FU when none available
system.cpu1.iq.fu_full::SimdSha1Hash2               0      0.00%     24.79% # attempts to use FU when none available
system.cpu1.iq.fu_full::SimdSha256Hash              0      0.00%     24.79% # attempts to use FU when none available
system.cpu1.iq.fu_full::SimdSha256Hash2             0      0.00%     24.79% # attempts to use FU when none available
system.cpu1.iq.fu_full::SimdShaSigma2               0      0.00%     24.79% # attempts to use FU when none available
system.cpu1.iq.fu_full::SimdShaSigma3               0      0.00%     24.79% # attempts to use FU when none available
system.cpu1.iq.fu_full::SimdPredAlu                 0      0.00%     24.79% # attempts to use FU when none available
system.cpu1.iq.fu_full::MemRead                957939     58.78%     83.57% # attempts to use FU when none available
system.cpu1.iq.fu_full::MemWrite               267756     16.43%    100.00% # attempts to use FU when none available
[...]
system.cpu1.dcache.WriteReq_mshr_miss_rate::total     0.038842                       # mshr miss rate for WriteReq accesses
system.cpu1.dcache.WriteReq_avg_mshr_miss_latency::.cpu1.data 126574.697916                       # average WriteReq mshr miss latency
system.cpu1.dcache.WriteReq_avg_mshr_miss_latency::total 126574.697916                       # average WriteReq mshr miss latency
system.cpu1.dcache.LoadLockedReq_hits::.cpu1.data      1446230                       # number of LoadLockedReq hits
system.cpu1.dcache.LoadLockedReq_hits::total      1446230                       # number of LoadLockedReq hits
system.cpu1.dcache.LoadLockedReq_misses::.cpu1.data         3876                       # number of LoadLockedReq misses
system.cpu1.dcache.LoadLockedReq_misses::total         3876                       # number of LoadLockedReq misses
system.cpu1.dcache.LoadLockedReq_miss_latency::.cpu1.data    107561000                       # number of LoadLockedReq miss cycles
system.cpu1.dcache.LoadLockedReq_miss_latency::total    107561000                       # number of LoadLockedReq miss cycles
system.cpu1.dcache.LoadLockedReq_accesses::.cpu1.data      1450106                       # number of LoadLockedReq accesses(hits+misses)
system.cpu1.dcache.LoadLockedReq_accesses::total      1450106                       # number of LoadLockedReq accesses(hits+misses)
system.cpu1.dcache.LoadLockedReq_miss_rate::.cpu1.data     0.002673                       # miss rate for LoadLockedReq accesses
system.cpu1.dcache.LoadLockedReq_miss_rate::total     0.002673                       # miss rate for LoadLockedReq accesses
system.cpu1.dcache.LoadLockedReq_avg_miss_latency::.cpu1.data 27750.515996                       # average LoadLockedReq miss latency
system.cpu1.dcache.LoadLockedReq_avg_miss_latency::total 27750.515996                       # average LoadLockedReq miss latency
system.cpu1.dcache.LoadLockedReq_mshr_hits::.cpu1.data          339                       # number of LoadLockedReq MSHR hits
system.cpu1.dcache.LoadLockedReq_mshr_hits::total          339                       # number of LoadLockedReq MSHR hits
system.cpu1.dcache.LoadLockedReq_mshr_misses::.cpu1.data         3537                       # number of LoadLockedReq MSHR misses
system.cpu1.dcache.LoadLockedReq_mshr_misses::total         3537                       # number of LoadLockedReq MSHR misses
system.cpu1.dcache.LoadLockedReq_mshr_miss_latency::.cpu1.data     95547000                       # number of LoadLockedReq MSHR miss cycles
system.cpu1.dcache.LoadLockedReq_mshr_miss_latency::total     95547000                       # number of LoadLockedReq MSHR miss cycles
system.cpu1.dcache.LoadLockedReq_mshr_miss_rate::.cpu1.data     0.002439                       # mshr miss rate for LoadLockedReq accesses
system.cpu1.dcache.LoadLockedReq_mshr_miss_rate::total     0.002439                       # mshr miss rate for LoadLockedReq accesses
system.cpu1.dcache.LoadLockedReq_avg_mshr_miss_latency::.cpu1.data 27013.570823                       # average LoadLockedReq mshr miss latency
system.cpu1.dcache.LoadLockedReq_avg_mshr_miss_latency::total 27013.570823                       # average LoadLockedReq mshr miss latency
system.cpu1.dcache.StoreCondReq_hits::.cpu1.data      1447896                       # number of StoreCondReq hits
system.cpu1.dcache.StoreCondReq_hits::total      1447896                       # number of StoreCondReq hits
system.cpu1.dcache.StoreCondReq_misses::.cpu1.data         1792                       # number of StoreCondReq misses
system.cpu1.dcache.StoreCondReq_misses::total         1792                       # number of StoreCondReq misses
system.cpu1.dcache.StoreCondReq_miss_latency::.cpu1.data     37591000                       # number of StoreCondReq miss cycles
system.cpu1.dcache.StoreCondReq_miss_latency::total     37591000                       # number of StoreCondReq miss cycles
system.cpu1.dcache.StoreCondReq_accesses::.cpu1.data      1449688                       # number of StoreCondReq accesses(hits+misses)
system.cpu1.dcache.StoreCondReq_accesses::total      1449688                       # number of StoreCondReq accesses(hits+misses)
system.cpu1.dcache.StoreCondReq_miss_rate::.cpu1.data     0.001236                       # miss rate for StoreCondReq accesses
system.cpu1.dcache.StoreCondReq_miss_rate::total     0.001236                       # miss rate for StoreCondReq accesses
system.cpu1.dcache.StoreCondReq_avg_miss_latency::.cpu1.data 20977.120536                       # average StoreCondReq miss latency
system.cpu1.dcache.StoreCondReq_avg_miss_latency::total 20977.120536                       # average StoreCondReq miss latency
system.cpu1.dcache.StoreCondReq_mshr_misses::.cpu1.data         1774                       # number of StoreCondReq MSHR misses
system.cpu1.dcache.StoreCondReq_mshr_misses::total         1774                       # number of StoreCondReq MSHR misses
system.cpu1.dcache.StoreCondReq_mshr_miss_latency::.cpu1.data     35881000                       # number of StoreCondReq MSHR miss cycles
system.cpu1.dcache.StoreCondReq_mshr_miss_latency::total     35881000                       # number of StoreCondReq MSHR miss cycles
system.cpu1.dcache.StoreCondReq_mshr_miss_rate::.cpu1.data     0.001224                       # mshr miss rate for StoreCondReq accesses
system.cpu1.dcache.StoreCondReq_mshr_miss_rate::total     0.001224                       # mshr miss rate for StoreCondReq accesses
system.cpu1.dcache.StoreCondReq_avg_mshr_miss_latency::.cpu1.data 20226.042841                       # average StoreCondReq mshr miss latency
system.cpu1.dcache.StoreCondReq_avg_mshr_miss_latency::total 20226.042841                       # average StoreCondReq mshr miss latency
system.cpu1.dcache.StoreCondFailReq_miss_latency::.cpu1.data      1299000                       # number of StoreCondFailReq miss cycles
system.cpu1.dcache.StoreCondFailReq_miss_latency::total      1299000                       # number of StoreCondFailReq miss cycles
system.cpu1.dcache.StoreCondFailReq_avg_miss_latency::.cpu1.data          inf                       # average StoreCondFailReq miss latency
system.cpu1.dcache.StoreCondFailReq_avg_miss_latency::total          inf                       # average StoreCondFailReq miss latency
system.cpu1.dcache.StoreCondFailReq_mshr_miss_latency::.cpu1.data      1235000                       # number of StoreCondFailReq MSHR miss cycles
system.cpu1.dcache.StoreCondFailReq_mshr_miss_latency::total      1235000                       # number of StoreCondFailReq MSHR miss cycles
system.cpu1.dcache.StoreCondFailReq_avg_mshr_miss_latency::.cpu1.data          inf                       # average StoreCondFailReq mshr miss latency
system.cpu1.dcache.StoreCondFailReq_avg_mshr_miss_latency::total          inf                       # average StoreCondFailReq mshr miss latency
system.cpu1.dcache.SwapReq_hits::.cpu1.data          348                       # number of SwapReq hits
system.cpu1.dcache.SwapReq_hits::total            348                       # number of SwapReq hits
system.cpu1.dcache.SwapReq_misses::.cpu1.data         1325                       # number of SwapReq misses
system.cpu1.dcache.SwapReq_misses::total         1325                       # number of SwapReq misses
system.cpu1.dcache.SwapReq_miss_latency::.cpu1.data     81586999                       # number of SwapReq miss cycles
system.cpu1.dcache.SwapReq_miss_latency::total     81586999                       # number of SwapReq miss cycles
system.cpu1.dcache.SwapReq_accesses::.cpu1.data         1673                       # number of SwapReq accesses(hits+misses)
system.cpu1.dcache.SwapReq_accesses::total         1673                       # number of SwapReq accesses(hits+misses)
system.cpu1.dcache.SwapReq_miss_rate::.cpu1.data     0.791990                       # miss rate for SwapReq accesses
system.cpu1.dcache.SwapReq_miss_rate::total     0.791990                       # miss rate for SwapReq accesses
system.cpu1.dcache.SwapReq_avg_miss_latency::.cpu1.data 61575.093585                       # average SwapReq miss latency
system.cpu1.dcache.SwapReq_avg_miss_latency::total 61575.093585                       # average SwapReq miss latency
system.cpu1.dcache.SwapReq_mshr_misses::.cpu1.data         1325                       # number of SwapReq MSHR misses
system.cpu1.dcache.SwapReq_mshr_misses::total         1325                       # number of SwapReq MSHR misses
system.cpu1.dcache.SwapReq_mshr_miss_latency::.cpu1.data     80261999                       # number of SwapReq MSHR miss cycles
system.cpu1.dcache.SwapReq_mshr_miss_latency::total     80261999                       # number of SwapReq MSHR miss cycles
system.cpu1.dcache.SwapReq_mshr_miss_rate::.cpu1.data     0.791990                       # mshr miss rate for SwapReq accesses
system.cpu1.dcache.SwapReq_mshr_miss_rate::total     0.791990                       # mshr miss rate for SwapReq accesses
system.cpu1.dcache.SwapReq_avg_mshr_miss_latency::.cpu1.data 60575.093585                       # average SwapReq mshr miss latency
system.cpu1.dcache.SwapReq_avg_mshr_miss_latency::total 60575.093585                       # average SwapReq mshr miss latency
system.cpu1.dcache.tags.pwrStateResidencyTicks::UNDEFINED 635351515500                       # Cumulative time (in ticks) in various power states
system.cpu1.dcache.tags.tagsinuse           31.962065                       # Cycle average of tags in use
system.cpu1.dcache.tags.total_refs           93337082                       # Total number of references to valid blocks.
system.cpu1.dcache.tags.sampled_refs          7942900                       # Sample count of references to valid blocks.
system.cpu1.dcache.tags.avg_refs            11.751008                       # Average number of references to valid blocks.
system.cpu1.dcache.tags.warmup_cycle                0                       # Cycle when the warmup percentage was hit.
system.cpu1.dcache.tags.occ_blocks::.cpu1.data    31.962065                       # Average occupied blocks per requestor
system.cpu1.dcache.tags.occ_percent::.cpu1.data     0.998815                       # Average percentage of cache occupancy
system.cpu1.dcache.tags.occ_percent::total     0.998815                       # Average percentage of cache occupancy
system.cpu1.dcache.tags.occ_task_id_blocks::1024           28                       # Occupied blocks per task id
system.cpu1.dcache.tags.age_task_id_blocks_1024::2           28                       # Occupied blocks per task id
system.cpu1.dcache.tags.occ_task_id_percent::1024     0.875000                       # Percentage of cache occupancy per task id
system.cpu1.dcache.tags.tag_accesses        214218353                       # Number of tag accesses
system.cpu1.dcache.tags.data_accesses       214218353                       # Number of data accesses
system.cpu_clk_domain.clock                       500                       # Clock period in ticks
system.tol2bus.pwrStateResidencyTicks::UNDEFINED 635351515500                       # Cumulative time (in ticks) in various power states
system.tol2bus.trans_dist::ReadResp          30564260                       # Transaction distribution
system.tol2bus.trans_dist::ReadRespWithInvalidate            1                       # Transaction distribution
system.tol2bus.trans_dist::WritebackDirty     10668421                       # Transaction distribution
system.tol2bus.trans_dist::WritebackClean     25531008                       # Transaction distribution
system.tol2bus.trans_dist::CleanEvict        50954075                       # Transaction distribution
system.tol2bus.trans_dist::HardPFReq          4759182                       # Transaction distribution
system.tol2bus.trans_dist::HardPFResp               2                       # Transaction distribution
system.tol2bus.trans_dist::UpgradeReq           23431                       # Transaction distribution
system.tol2bus.trans_dist::SCUpgradeReq          6129                       # Transaction distribution
system.tol2bus.trans_dist::UpgradeResp          29560                       # Transaction distribution
system.tol2bus.trans_dist::SCUpgradeFailReq          204                       # Transaction distribution
system.tol2bus.trans_dist::UpgradeFailResp          204                       # Transaction distribution
system.tol2bus.trans_dist::ReadExReq           497948                       # Transaction distribution
system.tol2bus.trans_dist::ReadExResp          497948                       # Transaction distribution
system.tol2bus.trans_dist::ReadCleanReq        431619                       # Transaction distribution
system.tol2bus.trans_dist::ReadSharedReq     30132642                       # Transaction distribution
system.tol2bus.trans_dist::InvalidateReq          615                       # Transaction distribution
system.tol2bus.trans_dist::InvalidateResp          615                       # Transaction distribution
system.tol2bus.pkt_count_system.cpu0.icache.mem_side::system.l2.cpu_side      1242744                       # Packet count per connected master and slave (bytes)
system.tol2bus.pkt_count_system.cpu0.dcache.mem_side::system.l2.cpu_side     28677652                       # Packet count per connected master and slave (bytes)
system.tol2bus.pkt_count_system.cpu1.icache.mem_side::system.l2.cpu_side        17316                       # Packet count per connected master and slave (bytes)
system.tol2bus.pkt_count_system.cpu1.dcache.mem_side::system.l2.cpu_side     23830707                       # Packet count per connected master and slave (bytes)
system.tol2bus.pkt_count_system.cpu2.icache.mem_side::system.l2.cpu_side        17664                       # Packet count per connected master and slave (bytes)
system.tol2bus.pkt_count_system.cpu2.dcache.mem_side::system.l2.cpu_side     20781485                       # Packet count per connected master and slave (bytes)
system.tol2bus.pkt_count_system.cpu3.icache.mem_side::system.l2.cpu_side        17124                       # Packet count per connected master and slave (bytes)
system.tol2bus.pkt_count_system.cpu3.dcache.mem_side::system.l2.cpu_side     18579587                       # Packet count per connected master and slave (bytes)
system.tol2bus.pkt_count::total              93164279                       # Packet count per connected master and slave (bytes)
system.tol2bus.pkt_size_system.cpu0.icache.mem_side::system.l2.cpu_side     53023552                       # Cumulative packet size per connected master and slave (bytes)
system.tol2bus.pkt_size_system.cpu0.dcache.mem_side::system.l2.cpu_side   1222542592                       # Cumulative packet size per connected master and slave (bytes)
system.tol2bus.pkt_size_system.cpu1.icache.mem_side::system.l2.cpu_side       738816                       # Cumulative packet size per connected master and slave (bytes)
system.tol2bus.pkt_size_system.cpu1.dcache.mem_side::system.l2.cpu_side   1015650496                       # Cumulative packet size per connected master and slave (bytes)
system.tol2bus.pkt_size_system.cpu2.icache.mem_side::system.l2.cpu_side       753664                       # Cumulative packet size per connected master and slave (bytes)
system.tol2bus.pkt_size_system.cpu2.dcache.mem_side::system.l2.cpu_side    885696512                       # Cumulative packet size per connected master and slave (bytes)
system.tol2bus.pkt_size_system.cpu3.icache.mem_side::system.l2.cpu_side       730624                       # Cumulative packet size per connected master and slave (bytes)
system.tol2bus.pkt_size_system.cpu3.dcache.mem_side::system.l2.cpu_side    791801152                       # Cumulative packet size per connected master and slave (bytes)
system.tol2bus.pkt_size::total             3970937408                       # Cumulative packet size per connected master and slave (bytes)
system.tol2bus.snoops                        60933587                       # Total snoops (count)
system.tol2bus.snoopTraffic                 333820736                       # Total snoop traffic (bytes)
system.tol2bus.snoop_fanout::samples         91972500                       # Request fanout histogram
system.tol2bus.snoop_fanout::mean            0.330914                       # Request fanout histogram
system.tol2bus.snoop_fanout::stdev           0.541833                       # Request fanout histogram
system.tol2bus.snoop_fanout::underflows             0      0.00%      0.00% # Request fanout histogram
system.tol2bus.snoop_fanout::0               63813022     69.38%     69.38% # Request fanout histogram
system.tol2bus.snoop_fanout::1               26831801     29.17%     98.56% # Request fanout histogram
system.tol2bus.snoop_fanout::2                 475524      0.52%     99.07% # Request fanout histogram
system.tol2bus.snoop_fanout::3                 756495      0.82%     99.90% # Request fanout histogram
system.tol2bus.snoop_fanout::4                  95658      0.10%    100.00% # Request fanout histogram
system.tol2bus.snoop_fanout::5                      0      0.00%    100.00% # Request fanout histogram
system.tol2bus.snoop_fanout::6                      0      0.00%    100.00% # Request fanout histogram
system.tol2bus.snoop_fanout::7                      0      0.00%    100.00% # Request fanout histogram
system.tol2bus.snoop_fanout::8                      0      0.00%    100.00% # Request fanout histogram
system.tol2bus.snoop_fanout::overflows              0      0.00%    100.00% # Request fanout histogram
system.tol2bus.snoop_fanout::min_value              0                       # Request fanout histogram
system.tol2bus.snoop_fanout::max_value              4                       # Request fanout histogram
system.tol2bus.snoop_fanout::total           91972500                       # Request fanout histogram
system.tol2bus.reqLayer0.occupancy        62096029597                       # Layer occupancy (ticks)
system.tol2bus.reqLayer0.utilization              9.8                       # Layer utilization (%)
system.tol2bus.respLayer5.occupancy       10408403885                       # Layer occupancy (ticks)
system.tol2bus.respLayer5.utilization             1.6                       # Layer utilization (%)
system.tol2bus.respLayer4.occupancy           9176193                       # Layer occupancy (ticks)
system.tol2bus.respLayer4.utilization             0.0                       # Layer utilization (%)
system.tol2bus.respLayer7.occupancy        9306822817                       # Layer occupancy (ticks)
system.tol2bus.respLayer7.utilization             1.5                       # Layer utilization (%)
system.tol2bus.respLayer6.occupancy           8868290                       # Layer occupancy (ticks)
system.tol2bus.respLayer6.utilization             0.0                       # Layer utilization (%)
system.tol2bus.respLayer1.occupancy       14355182515                       # Layer occupancy (ticks)
system.tol2bus.respLayer1.utilization             2.3                       # Layer utilization (%)
system.tol2bus.respLayer0.occupancy         621555630                       # Layer occupancy (ticks)
system.tol2bus.respLayer0.utilization             0.1                       # Layer utilization (%)
system.tol2bus.respLayer3.occupancy       11929333485                       # Layer occupancy (ticks)
system.tol2bus.respLayer3.utilization             1.9                       # Layer utilization (%)
system.tol2bus.respLayer2.occupancy           9000661                       # Layer occupancy (ticks)
system.tol2bus.respLayer2.utilization             0.0                       # Layer utilization (%)
system.tol2bus.snoopLayer0.occupancy             3021                       # Layer occupancy (ticks)
system.tol2bus.snoopLayer0.utilization            0.0                       # Layer utilization (%)

---------- End Simulation Statistics   ----------
