
---------- Begin Simulation Statistics ----------
final_tick                               1296441182000                       # Number of ticks from beginning of simulation (restored from checkpoints and never reset)
host_inst_rate                                 109273                       # Simulator instruction rate (inst/s)
host_mem_usage                                 702252                       # Number of bytes of host memory used
host_op_rate                                   109593                       # Simulator op (including micro ops) rate (op/s)
host_seconds                                 13146.80                       # Real time elapsed on the host
host_tick_rate                               98612686                       # Simulator tick rate (ticks/s)
sim_freq                                 1000000000000                       # Frequency of simulated ticks
sim_insts                                  1436591329                       # Number of instructions simulated
sim_ops                                    1440795084                       # Number of ops (including micro ops) simulated
sim_seconds                                  1.296441                       # Number of seconds simulated
sim_ticks                                1296441182000                       # Number of ticks simulated
system.cpu0.branchPred.BTBCorrect                   0                       # Number of correct BTB predictions (this stat may not work properly.
system.cpu0.branchPred.BTBHitPct            87.547825                       # BTB Hit Percentage
system.cpu0.branchPred.BTBHits              178275058                       # Number of BTB hits
system.cpu0.branchPred.BTBLookups           203631624                       # Number of BTB lookups
system.cpu0.branchPred.RASInCorrect                 0                       # Number of incorrect RAS predictions.
system.cpu0.branchPred.condIncorrect         13472184                       # Number of conditional branches incorrect
system.cpu0.branchPred.condPredicted        275577079                       # Number of conditional branches predicted
system.cpu0.branchPred.indirectHits          21791590                       # Number of indirect target hits.
system.cpu0.branchPred.indirectLookups       23211295                       # Number of indirect predictor lookups.
system.cpu0.branchPred.indirectMisses         1419705                       # Number of indirect misses.
system.cpu0.branchPred.lookups              348718747                       # Number of BP lookups
system.cpu0.branchPred.usedRAS                      0                       # Number of times the RAS was used to get a target.
system.cpu0.branchPredindirectMispredicted      2194875                       # Number of mispredicted indirect branches.
system.cpu0.commit.amos                       2100281                       # Number of atomic instructions committed
system.cpu0.commit.branchMispredicts          8806921                       # The number of times a branch was mispredicted
system.cpu0.commit.branches                 329545613                       # Number of branches committed
system.cpu0.commit.bw_lim_events             34211361                       # number cycles where commit BW limit reached
system.cpu0.commit.commitNonSpecStalls        6309742                       # The number of times commit has been forced to stall to communicate backwards
system.cpu0.commit.commitSquashedInsts       67580348                       # The number of squashed insts skipped by commit
system.cpu0.commit.committedInsts          1316549607                       # Number of instructions committed
system.cpu0.commit.committedOps            1318653178                       # Number of ops (including micro ops) committed
system.cpu0.commit.committed_per_cycle::samples   2419980857                       # Number of insts commited each cycle
system.cpu0.commit.committed_per_cycle::mean     0.544902                       # Number of insts commited each cycle
system.cpu0.commit.committed_per_cycle::stdev     1.289633                       # Number of insts commited each cycle
system.cpu0.commit.committed_per_cycle::underflows            0      0.00%      0.00% # Number of insts commited each cycle
system.cpu0.commit.committed_per_cycle::0   1775614671     73.37%     73.37% # Number of insts commited each cycle
system.cpu0.commit.committed_per_cycle::1    377775935     15.61%     88.98% # Number of insts commited each cycle
system.cpu0.commit.committed_per_cycle::2     99407523      4.11%     93.09% # Number of insts commited each cycle
system.cpu0.commit.committed_per_cycle::3     93244968      3.85%     96.94% # Number of insts commited each cycle
system.cpu0.commit.committed_per_cycle::4     23438706      0.97%     97.91% # Number of insts commited each cycle
system.cpu0.commit.committed_per_cycle::5      7402179      0.31%     98.22% # Number of insts commited each cycle
system.cpu0.commit.committed_per_cycle::6      4327912      0.18%     98.40% # Number of insts commited each cycle
system.cpu0.commit.committed_per_cycle::7      4557602      0.19%     98.59% # Number of insts commited each cycle
system.cpu0.commit.committed_per_cycle::8     34211361      1.41%    100.00% # Number of insts commited each cycle
system.cpu0.commit.committed_per_cycle::overflows            0      0.00%    100.00% # Number of insts commited each cycle
system.cpu0.commit.committed_per_cycle::min_value            0                       # Number of insts commited each cycle
system.cpu0.commit.committed_per_cycle::max_value            8                       # Number of insts commited each cycle
system.cpu0.commit.committed_per_cycle::total   2419980857                       # Number of insts commited each cycle
system.cpu0.commit.fp_insts                        50                       # Number of committed floating point instructions.
system.cpu0.commit.function_calls            25143366                       # Number of function calls committed.
system.cpu0.commit.int_insts               1273921373                       # Number of committed integer instructions.
system.cpu0.commit.loads                    405171086                       # Number of loads committed
system.cpu0.commit.membars                    4203726                       # Number of memory barriers committed
system.cpu0.commit.op_class_0::No_OpClass      4203732      0.32%      0.32% # Class of committed instruction
system.cpu0.commit.op_class_0::IntAlu       742062422     56.27%     56.59% # Class of committed instruction
system.cpu0.commit.op_class_0::IntMult       11831786      0.90%     57.49% # Class of committed instruction
system.cpu0.commit.op_class_0::IntDiv         2099835      0.16%     57.65% # Class of committed instruction
system.cpu0.commit.op_class_0::FloatAdd             0      0.00%     57.65% # Class of committed instruction
system.cpu0.commit.op_class_0::FloatCmp             4      0.00%     57.65% # Class of committed instruction
system.cpu0.commit.op_class_0::FloatCvt            12      0.00%     57.65% # Class of committed instruction
system.cpu0.commit.op_class_0::FloatMult            0      0.00%     57.65% # Class of committed instruction
system.cpu0.commit.op_class_0::FloatMultAcc            0      0.00%     57.65% # Class of committed instruction
system.cpu0.commit.op_class_0::FloatDiv             2      0.00%     57.65% # Class of committed instruction
system.cpu0.commit.op_class_0::FloatMisc            4      0.00%     57.65% # Class of committed instruction
system.cpu0.commit.op_class_0::FloatSqrt            0      0.00%     57.65% # Class of committed instruction
system.cpu0.commit.op_class_0::SimdAdd              0      0.00%     57.65% # Class of committed instruction
system.cpu0.commit.op_class_0::SimdAddAcc            0      0.00%     57.65% # Class of committed instruction
system.cpu0.commit.op_class_0::SimdAlu              0      0.00%     57.65% # Class of committed instruction
system.cpu0.commit.op_class_0::SimdCmp              0      0.00%     57.65% # Class of committed instruction
system.cpu0.commit.op_class_0::SimdCvt              0      0.00%     57.65% # Class of committed instruction
system.cpu0.commit.op_class_0::SimdMisc             0      0.00%     57.65% # Class of committed instruction
system.cpu0.commit.op_class_0::SimdMult             0      0.00%     57.65% # Class of committed instruction
system.cpu0.commit.op_class_0::SimdMultAcc            0      0.00%     57.65% # Class of committed instruction
system.cpu0.commit.op_class_0::SimdShift            0      0.00%     57.65% # Class of committed instruction
system.cpu0.commit.op_class_0::SimdShiftAcc            0      0.00%     57.65% # Class of committed instruction
system.cpu0.commit.op_class_0::SimdDiv              0      0.00%     57.65% # Class of committed instruction
system.cpu0.commit.op_class_0::SimdSqrt             0      0.00%     57.65% # Class of committed instruction
system.cpu0.commit.op_class_0::SimdFloatAdd            0      0.00%     57.65% # Class of committed instruction
system.cpu0.commit.op_class_0::SimdFloatAlu            0      0.00%     57.65% # Class of committed instruction
system.cpu0.commit.op_class_0::SimdFloatCmp            0      0.00%     57.65% # Class of committed instruction
system.cpu0.commit.op_class_0::SimdFloatCvt            0      0.00%     57.65% # Class of committed instruction
system.cpu0.commit.op_class_0::SimdFloatDiv            0      0.00%     57.65% # Class of committed instruction
system.cpu0.commit.op_class_0::SimdFloatMisc            0      0.00%     57.65% # Class of committed instruction
system.cpu0.commit.op_class_0::SimdFloatMult            0      0.00%     57.65% # Class of committed instruction
system.cpu0.commit.op_class_0::SimdFloatMultAcc            0      0.00%     57.65% # Class of committed instruction
system.cpu0.commit.op_class_0::SimdFloatSqrt            0      0.00%     57.65% # Class of committed instruction
system.cpu0.commit.op_class_0::SimdReduceAdd            0      0.00%     57.65% # Class of committed instruction
system.cpu0.commit.op_class_0::SimdReduceAlu            0      0.00%     57.65% # Class of committed instruction
system.cpu0.commit.op_class_0::SimdReduceCmp            0      0.00%     57.65% # Class of committed instruction
system.cpu0.commit.op_class_0::SimdFloatReduceAdd            0      0.00%     57.65% # Class of committed instruction
system.cpu0.commit.op_class_0::SimdFloatReduceCmp            0      0.00%     57.65% # Class of committed instruction
system.cpu0.commit.op_class_0::SimdAes              0      0.00%     57.65% # Class of committed instruction
system.cpu0.commit.op_class_0::SimdAesMix            0      0.00%     57.65% # Class of committed instruction
system.cpu0.commit.op_class_0::SimdSha1Hash            0      0.00%     57.65% # Class of committed instruction
system.cpu0.commit.op_class_0::SimdSha1Hash2            0      0.00%     57.65% # Class of committed instruction
system.cpu0.commit.op_class_0::SimdSha256Hash            0      0.00%     57.65% # Class of committed instruction
system.cpu0.commit.op_class_0::SimdSha256Hash2            0      0.00%     57.65% # Class of committed instruction
system.cpu0.commit.op_class_0::SimdShaSigma2            0      0.00%     57.65% # Class of committed instruction
system.cpu0.commit.op_class_0::SimdShaSigma3            0      0.00%     57.65% # Class of committed instruction
system.cpu0.commit.op_class_0::SimdPredAlu            0      0.00%     57.65% # Class of committed instruction
system.cpu0.commit.op_class_0::MemRead      407271359     30.89%     88.53% # Class of committed instruction
system.cpu0.commit.op_class_0::MemWrite     151183994     11.47%    100.00% # Class of committed instruction
system.cpu0.commit.op_class_0::FloatMemRead            8      0.00%    100.00% # Class of committed instruction
system.cpu0.commit.op_class_0::FloatMemWrite           20      0.00%    100.00% # Class of committed instruction
system.cpu0.commit.op_class_0::IprAccess            0      0.00%    100.00% # Class of committed instruction
system.cpu0.commit.op_class_0::InstPrefetch            0      0.00%    100.00% # Class of committed instruction
system.cpu0.commit.op_class_0::total       1318653178                       # Class of committed instruction
system.cpu0.commit.refs                     558455381                       # Number of memory references committed
system.cpu0.commit.swp_count                        0                       # Number of s/w prefetches committed
system.cpu0.commit.vec_insts                        0                       # Number of committed Vector instructions.
system.cpu0.committedInsts                 1316549607                       # Number of Instructions Simulated
system.cpu0.committedOps                   1318653178                       # Number of Ops (including micro ops) Simulated
system.cpu0.cpi                              1.962208                       # CPI: Cycles Per Instruction
system.cpu0.cpi_total                        1.962208                       # CPI: Total CPI of All Threads
system.cpu0.decode.BlockedCycles            492393870                       # Number of cycles decode is blocked
system.cpu0.decode.BranchMispred              4722957                       # Number of times decode detected a branch misprediction
system.cpu0.decode.BranchResolved           177334453                       # Number of times decode resolved a branch
system.cpu0.decode.DecodedInsts            1407135688                       # Number of instructions handled by decode
system.cpu0.decode.IdleCycles               970967036                       # Number of cycles decode is idle
system.cpu0.decode.RunCycles                955575688                       # Number of cycles decode is running
system.cpu0.decode.SquashCycles               8821390                       # Number of cycles decode is squashing
system.cpu0.decode.SquashedInsts             12616817                       # Number of squashed instructions handled by decode
system.cpu0.decode.UnblockCycles              6522880                       # Number of cycles decode is unblocking
system.cpu0.dtb.accesses                            0                       # DTB accesses
system.cpu0.dtb.hits                                0                       # DTB hits
system.cpu0.dtb.misses                              0                       # DTB misses
system.cpu0.dtb.read_accesses                       0                       # DTB read accesses
system.cpu0.dtb.read_hits                           0                       # DTB read hits
system.cpu0.dtb.read_misses                         0                       # DTB read misses
system.cpu0.dtb.write_accesses                      0                       # DTB write accesses
system.cpu0.dtb.write_hits                          0                       # DTB write hits
system.cpu0.dtb.write_misses                        0                       # DTB write misses
system.cpu0.fetch.Branches                  348718747                       # Number of branches that fetch encountered
system.cpu0.fetch.CacheLines                252940546                       # Number of cache lines fetched
system.cpu0.fetch.Cycles                   1470767292                       # Number of cycles fetch has run and was not squashing or blocked
system.cpu0.fetch.IcacheSquashes              3295047                       # Number of outstanding Icache misses that were squashed
system.cpu0.fetch.IcacheWaitRetryStallCycles           80                       # Number of stall cycles due to full MSHR
system.cpu0.fetch.Insts                    1428984817                       # Number of instructions fetch has processed
system.cpu0.fetch.MiscStallCycles                  20                       # Number of cycles fetch has spent waiting on interrupts, or bad addresses, or out of MSHRs
system.cpu0.fetch.PendingTrapStallCycles          119                       # Number of stall cycles due to pending traps
system.cpu0.fetch.SquashCycles               26973328                       # Number of cycles fetch has spent squashing
system.cpu0.fetch.branchRate                 0.134987                       # Number of branch fetches per cycle
system.cpu0.fetch.icacheStallCycles         950026689                       # Number of cycles fetch is stalled on an Icache miss
system.cpu0.fetch.predictedBranches         200066648                       # Number of branches that fetch has predicted taken
system.cpu0.fetch.rate                       0.553153                       # Number of inst fetches per cycle
system.cpu0.fetch.rateDist::samples        2434280864                       # Number of instructions fetched each cycle (Total)
system.cpu0.fetch.rateDist::mean             0.587890                       # Number of instructions fetched each cycle (Total)
system.cpu0.fetch.rateDist::stdev            0.885211                       # Number of instructions fetched each cycle (Total)
system.cpu0.fetch.rateDist::underflows              0      0.00%      0.00% # Number of instructions fetched each cycle (Total)
system.cpu0.fetch.rateDist::0              1430016339     58.74%     58.74% # Number of instructions fetched each cycle (Total)
system.cpu0.fetch.rateDist::1               743168358     30.53%     89.27% # Number of instructions fetched each cycle (Total)
system.cpu0.fetch.rateDist::2               132797593      5.46%     94.73% # Number of instructions fetched each cycle (Total)
system.cpu0.fetch.rateDist::3               107011428      4.40%     99.13% # Number of instructions fetched each cycle (Total)
system.cpu0.fetch.rateDist::4                13671244      0.56%     99.69% # Number of instructions fetched each cycle (Total)
system.cpu0.fetch.rateDist::5                 3301972      0.14%     99.82% # Number of instructions fetched each cycle (Total)
system.cpu0.fetch.rateDist::6                  105234      0.00%     99.83% # Number of instructions fetched each cycle (Total)
system.cpu0.fetch.rateDist::7                 4204872      0.17%    100.00% # Number of instructions fetched each cycle (Total)
system.cpu0.fetch.rateDist::8                    3824      0.00%    100.00% # Number of instructions fetched each cycle (Total)
system.cpu0.fetch.rateDist::overflows               0      0.00%    100.00% # Number of instructions fetched each cycle (Total)
system.cpu0.fetch.rateDist::min_value               0                       # Number of instructions fetched each cycle (Total)
system.cpu0.fetch.rateDist::max_value               8                       # Number of instructions fetched each cycle (Total)
system.cpu0.fetch.rateDist::total          2434280864                       # Number of instructions fetched each cycle (Total)
system.cpu0.fp_regfile_reads                       44                       # number of floating regfile reads
system.cpu0.fp_regfile_writes                      23                       # number of floating regfile writes
system.cpu0.idleCycles                      149063065                       # Total number of cycles that the CPU has spent unscheduled due to idling
system.cpu0.iew.branchMispredicts             8937340                       # Number of branch mispredicts detected at execute
system.cpu0.iew.exec_branches               336151956                       # Number of branches executed
system.cpu0.iew.exec_nop                            0                       # number of nop insts executed
system.cpu0.iew.exec_rate                    0.530151                       # Inst execution rate
system.cpu0.iew.exec_refs                   585565387                       # number of memory reference insts executed
system.cpu0.iew.exec_stores                 156100304                       # Number of stores executed
system.cpu0.iew.exec_swp                            0                       # number of swp insts executed
system.cpu0.iew.iewBlockCycles              375906150                       # Number of cycles IEW is blocking
system.cpu0.iew.iewDispLoadInsts            430029459                       # Number of dispatched load instructions
system.cpu0.iew.iewDispNonSpecInsts           2106199                       # Number of dispatched non-speculative instructions
system.cpu0.iew.iewDispSquashedInsts          2223374                       # Number of squashed instructions skipped by dispatch
system.cpu0.iew.iewDispStoreInsts           158563158                       # Number of dispatched store instructions
system.cpu0.iew.iewDispatchedInsts         1386171170                       # Number of instructions dispatched to IQ
system.cpu0.iew.iewExecLoadInsts            429465083                       # Number of load instructions executed
system.cpu0.iew.iewExecSquashedInsts         10014698                       # Number of squashed instructions skipped in execute
system.cpu0.iew.iewExecutedInsts           1369561707                       # Number of executed instructions
system.cpu0.iew.iewIQFullEvents               1935054                       # Number of times the IQ has become full, causing a stall
system.cpu0.iew.iewIdleCycles                       0                       # Number of cycles IEW is idle
system.cpu0.iew.iewLSQFullEvents             16402392                       # Number of times the LSQ has become full, causing a stall
system.cpu0.iew.iewSquashCycles               8821390                       # Number of cycles IEW is squashing
system.cpu0.iew.iewUnblockCycles             20727430                       # Number of cycles IEW is unblocking
system.cpu0.iew.lsq.thread0.blockedLoads            0                       # Number of blocked loads due to partial load-store forwarding
system.cpu0.iew.lsq.thread0.cacheBlocked       299742                       # Number of times an access to memory failed due to the cache being blocked
system.cpu0.iew.lsq.thread0.forwLoads        20539599                       # Number of loads that had data forwarded from stores
system.cpu0.iew.lsq.thread0.ignoredResponses        34016                       # Number of memory responses ignored because the instruction is squashed
system.cpu0.iew.lsq.thread0.invAddrLoads            0                       # Number of loads ignored due to an invalid address
system.cpu0.iew.lsq.thread0.invAddrSwpfs            0                       # Number of software prefetches ignored due to an invalid address
system.cpu0.iew.lsq.thread0.memOrderViolation        14293                       # Number of memory ordering violations
system.cpu0.iew.lsq.thread0.rescheduledLoads      4623587                       # Number of loads that were rescheduled
system.cpu0.iew.lsq.thread0.squashedLoads     24858373                       # Number of loads squashed
system.cpu0.iew.lsq.thread0.squashedStores      5278863                       # Number of stores squashed
system.cpu0.iew.memOrderViolationEvents         14293                       # Number of memory order violations
system.cpu0.iew.predictedNotTakenIncorrect       773897                       # Number of branches that were predicted not taken incorrectly
system.cpu0.iew.predictedTakenIncorrect       8163443                       # Number of branches that were predicted taken incorrectly
system.cpu0.iew.wb_consumers                582921153                       # num instructions consuming a value
system.cpu0.iew.wb_count                   1357550021                       # cumulative count of insts written-back
system.cpu0.iew.wb_fanout                    0.898062                       # average fanout of values written-back
system.cpu0.iew.wb_producers                523499291                       # num instructions producing a value
system.cpu0.iew.wb_rate                      0.525501                       # insts written-back per cycle
system.cpu0.iew.wb_sent                    1357676990                       # cumulative count of insts sent to commit
system.cpu0.int_regfile_reads              1680689811                       # number of integer regfile reads
system.cpu0.int_regfile_writes              875236929                       # number of integer regfile writes
system.cpu0.ipc                              0.509630                       # IPC: Instructions Per Cycle
system.cpu0.ipc_total                        0.509630                       # IPC: Total IPC of All Threads
system.cpu0.iq.FU_type_0::No_OpClass          4205635      0.30%      0.30% # Type of FU issued
system.cpu0.iq.FU_type_0::IntAlu            771337574     55.91%     56.22% # Type of FU issued
system.cpu0.iq.FU_type_0::IntMult            11833604      0.86%     57.07% # Type of FU issued
system.cpu0.iq.FU_type_0::IntDiv              2100418      0.15%     57.23% # Type of FU issued
system.cpu0.iq.FU_type_0::FloatAdd                  0      0.00%     57.23% # Type of FU issued
system.cpu0.iq.FU_type_0::FloatCmp                  4      0.00%     57.23% # Type of FU issued
system.cpu0.iq.FU_type_0::FloatCvt                 12      0.00%     57.23% # Type of FU issued
system.cpu0.iq.FU_type_0::FloatMult                 0      0.00%     57.23% # Type of FU issued
system.cpu0.iq.FU_type_0::FloatMultAcc              0      0.00%     57.23% # Type of FU issued
system.cpu0.iq.FU_type_0::FloatDiv                  2      0.00%     57.23% # Type of FU issued
system.cpu0.iq.FU_type_0::FloatMisc                 4      0.00%     57.23% # Type of FU issued
system.cpu0.iq.FU_type_0::FloatSqrt                 0      0.00%     57.23% # Type of FU issued
system.cpu0.iq.FU_type_0::SimdAdd                   0      0.00%     57.23% # Type of FU issued
system.cpu0.iq.FU_type_0::SimdAddAcc                0      0.00%     57.23% # Type of FU issued
system.cpu0.iq.FU_type_0::SimdAlu                   0      0.00%     57.23% # Type of FU issued
system.cpu0.iq.FU_type_0::SimdCmp                   0      0.00%     57.23% # Type of FU issued
system.cpu0.iq.FU_type_0::SimdCvt                   0      0.00%     57.23% # Type of FU issued
system.cpu0.iq.FU_type_0::SimdMisc                  0      0.00%     57.23% # Type of FU issued
system.cpu0.iq.FU_type_0::SimdMult                  0      0.00%     57.23% # Type of FU issued
system.cpu0.iq.FU_type_0::SimdMultAcc               0      0.00%     57.23% # Type of FU issued
system.cpu0.iq.FU_type_0::SimdShift                 0      0.00%     57.23% # Type of FU issued
system.cpu0.iq.FU_type_0::SimdShiftAcc              0      0.00%     57.23% # Type of FU issued
system.cpu0.iq.FU_type_0::SimdDiv                   0      0.00%     57.23% # Type of FU issued
system.cpu0.iq.FU_type_0::SimdSqrt                  0      0.00%     57.23% # Type of FU issued
system.cpu0.iq.FU_type_0::SimdFloatAdd              0      0.00%     57.23% # Type of FU issued
system.cpu0.iq.FU_type_0::SimdFloatAlu              0      0.00%     57.23% # Type of FU issued
system.cpu0.iq.FU_type_0::SimdFloatCmp              0      0.00%     57.23% # Type of FU issued
system.cpu0.iq.FU_type_0::SimdFloatCvt              0      0.00%     57.23% # Type of FU issued
system.cpu0.iq.FU_type_0::SimdFloatDiv              0      0.00%     57.23% # Type of FU issued
system.cpu0.iq.FU_type_0::SimdFloatMisc             0      0.00%     57.23% # Type of FU issued
system.cpu0.iq.FU_type_0::SimdFloatMult             0      0.00%     57.23% # Type of FU issued
system.cpu0.iq.FU_type_0::SimdFloatMultAcc            0      0.00%     57.23% # Type of FU issued
system.cpu0.iq.FU_type_0::SimdFloatSqrt             0      0.00%     57.23% # Type of FU issued
system.cpu0.iq.FU_type_0::SimdReduceAdd             0      0.00%     57.23% # Type of FU issued
system.cpu0.iq.FU_type_0::SimdReduceAlu             0      0.00%     57.23% # Type of FU issued
system.cpu0.iq.FU_type_0::SimdReduceCmp             0      0.00%     57.23% # Type of FU issued
system.cpu0.iq.FU_type_0::SimdFloatReduceAdd            0      0.00%     57.23% # Type of FU issued
system.cpu0.iq.FU_type_0::SimdFloatReduceCmp            0      0.00%     57.23% # Type of FU issued
system.cpu0.iq.FU_type_0::SimdAes                   0      0.00%     57.23% # Type of FU issued
system.cpu0.iq.FU_type_0::SimdAesMix                0      0.00%     57.23% # Type of FU issued
system.cpu0.iq.FU_type_0::SimdSha1Hash              0      0.00%     57.23% # Type of FU issued
system.cpu0.iq.FU_type_0::SimdSha1Hash2             0      0.00%     57.23% # Type of FU issued
system.cpu0.iq.FU_type_0::SimdSha256Hash            0      0.00%     57.23% # Type of FU issued
system.cpu0.iq.FU_type_0::SimdSha256Hash2            0      0.00%     57.23% # Type of FU issued
system.cpu0.iq.FU_type_0::SimdShaSigma2             0      0.00%     57.23% # Type of FU issued
system.cpu0.iq.FU_type_0::SimdShaSigma3             0      0.00%     57.23% # Type of FU issued
system.cpu0.iq.FU_type_0::SimdPredAlu               0      0.00%     57.23% # Type of FU issued
system.cpu0.iq.FU_type_0::MemRead           434303752     31.48%     88.71% # Type of FU issued
system.cpu0.iq.FU_type_0::MemWrite          155795372     11.29%    100.00% # Type of FU issued
system.cpu0.iq.FU_type_0::FloatMemRead              9      0.00%    100.00% # Type of FU issued
system.cpu0.iq.FU_type_0::FloatMemWrite            20      0.00%    100.00% # Type of FU issued
system.cpu0.iq.FU_type_0::IprAccess                 0      0.00%    100.00% # Type of FU issued
system.cpu0.iq.FU_type_0::InstPrefetch              0      0.00%    100.00% # Type of FU issued
system.cpu0.iq.FU_type_0::total            1379576406                       # Type of FU issued
system.cpu0.iq.fp_alu_accesses                     53                       # Number of floating point alu accesses
system.cpu0.iq.fp_inst_queue_reads                104                       # Number of floating instruction queue reads
system.cpu0.iq.fp_inst_queue_wakeup_accesses           51                       # Number of floating instruction queue wakeup accesses
system.cpu0.iq.fp_inst_queue_writes                56                       # Number of floating instruction queue writes
system.cpu0.iq.fu_busy_cnt                    3528083                       # FU busy when requested
system.cpu0.iq.fu_busy_rate                  0.002557                       # FU busy rate (busy events/executed inst)
system.cpu0.iq.fu_full::No_OpClass                  0      0.00%      0.00% # attempts to use FU when none available
system.cpu0.iq.fu_full::IntAlu                 727608     20.62%     20.62% # attempts to use FU when none available
system.cpu0.iq.fu_full::IntMult                     0      0.00%     20.62% # attempts to use FU when none available
system.cpu0.iq.fu_full::IntDiv                      0      0.00%     20.62% # attempts to use FU when none available
system.cpu0.iq.fu_full::FloatAdd                    0      0.00%     20.62% # attempts to use FU when none available
system.cpu0.iq.fu_full::FloatCmp                    0      0.00%     20.62% # attempts to use FU when none available
system.cpu0.iq.fu_full::FloatCvt                    0      0.00%     20.62% # attempts to use FU when none available
system.cpu0.iq.fu_full::FloatMult                   0      0.00%     20.62% # attempts to use FU when none available
system.cpu0.iq.fu_full::FloatMultAcc                0      0.00%     20.62% # attempts to use FU when none available
system.cpu0.iq.fu_full::FloatDiv                    0      0.00%     20.62% # attempts to use FU when none available
system.cpu0.iq.fu_full::FloatMisc                   0      0.00%     20.62% # attempts to use FU when none available
system.cpu0.iq.fu_full::FloatSqrt                   0      0.00%     20.62% # attempts to use FU when none available
system.cpu0.iq.fu_full::SimdAdd                     0      0.00%     20.62% # attempts to use FU when none available
system.cpu0.iq.fu_full::SimdAddAcc                  0      0.00%     20.62% # attempts to use FU when none available
system.cpu0.iq.fu_full::SimdAlu                     0      0.00%     20.62% # attempts to use FU when none available
system.cpu0.iq.fu_full::SimdCmp                     0      0.00%     20.62% # attempts to use FU when none available
system.cpu0.iq.fu_full::SimdCvt                     0      0.00%     20.62% # attempts to use FU when none available
system.cpu0.iq.fu_full::SimdMisc                    0      0.00%     20.62% # attempts to use FU when none available
system.cpu0.iq.fu_full::SimdMult                    0      0.00%     20.62% # attempts to use FU when none available
system.cpu0.iq.fu_full::SimdMultAcc                 0      0.00%     20.62% # attempts to use FU when none available
system.cpu0.iq.fu_full::SimdShift                   0      0.00%     20.62% # attempts to use FU when none available
system.cpu0.iq.fu_full::SimdShiftAcc                0      0.00%     20.62% # attempts to use FU when none available
system.cpu0.iq.fu_full::SimdDiv                     0      0.00%     20.62% # attempts to use FU when none available
system.cpu0.iq.fu_full::SimdSqrt                    0      0.00%     20.62% # attempts to use FU when none available
system.cpu0.iq.fu_full::SimdFloatAdd                0      0.00%     20.62% # attempts to use FU when none available
system.cpu0.iq.fu_full::SimdFloatAlu                0      0.00%     20.62% # attempts to use FU when none available
system.cpu0.iq.fu_full::SimdFloatCmp                0      0.00%     20.62% # attempts to use FU when none available
system.cpu0.iq.fu_full::SimdFloatCvt                0      0.00%     20.62% # attempts to use FU when none available
system.cpu0.iq.fu_full::SimdFloatDiv                0      0.00%     20.62% # attempts to use FU when none available
system.cpu0.iq.fu_full::SimdFloatMisc               0      0.00%     20.62% # attempts to use FU when none available
system.cpu0.iq.fu_full::SimdFloatMult               0      0.00%     20.62% # attempts to use FU when none available
system.cpu0.iq.fu_full::SimdFloatMultAcc            0      0.00%     20.62% # attempts to use FU when none available
system.cpu0.iq.fu_full::SimdFloatSqrt               0      0.00%     20.62% # attempts to use FU when none available
system.cpu0.iq.fu_full::SimdReduceAdd               0      0.00%     20.62% # attempts to use FU when none available
system.cpu0.iq.fu_full::SimdReduceAlu               0      0.00%     20.62% # attempts to use FU when none available
system.cpu0.iq.fu_full::SimdReduceCmp               0      0.00%     20.62% # attempts to use FU when none available
system.cpu0.iq.fu_full::SimdFloatReduceAdd            0      0.00%     20.62% # attempts to use FU when none available
system.cpu0.iq.fu_full::SimdFloatReduceCmp            0      0.00%     20.62% # attempts to use FU when none available
system.cpu0.iq.fu_full::SimdAes                     0      0.00%     20.62% # attempts to use FU when none available
system.cpu0.iq.fu_full::SimdAesMix                  0      0.00%     20.62% # attempts to use FU when none available
system.cpu0.iq.fu_full::SimdSha1Hash                0      0.00%     20.62% # attempts to use FU when none available
system.cpu0.iq.fu_full::SimdSha1Hash2               0      0.00%     20.62% # attempts to use FU when none available
system.cpu0.iq.fu_full::SimdSha256Hash              0      0.00%     20.62% # attempts to use FU when none available
system.cpu0.iq.fu_full::SimdSha256Hash2             0      0.00%     20.62% # attempts to use FU when none available
system.cpu0.iq.fu_full::SimdShaSigma2               0      0.00%     20.62% # attempts to use FU when none available
system.cpu0.iq.fu_full::SimdShaSigma3               0      0.00%     20.62% # attempts to use FU when none available
system.cpu0.iq.fu_full::SimdPredAlu                 0      0.00%     20.62% # attempts to use FU when none available
system.cpu0.iq.fu_full::MemRead               2226213     63.10%     83.72% # attempts to use FU when none available
system.cpu0.iq.fu_full::MemWrite               574260     16.28%    100.00% # attempts to use FU when none available
system.cpu0.iq.fu_full::FloatMemRead                0      0.00%    100.00% # attempts to use FU when none available
system.cpu0.iq.fu_full::FloatMemWrite               2      0.00%    100.00% # attempts to use FU when none available
system.cpu0.iq.fu_full::IprAccess                   0      0.00%    100.00% # attempts to use FU when none available
system.cpu0.iq.fu_full::InstPrefetch                0      0.00%    100.00% # attempts to use FU when none available
system.cpu0.iq.int_alu_accesses            1378898801                       # Number of integer alu accesses
system.cpu0.iq.int_inst_queue_reads        5197236560                       # Number of integer instruction queue reads
system.cpu0.iq.int_inst_queue_wakeup_accesses   1357549970                       # Number of integer instruction queue wakeup accesses
system.cpu0.iq.int_inst_queue_writes       1453702439                       # Number of integer instruction queue writes
system.cpu0.iq.iqInstsAdded                1379861083                       # Number of instructions added to the IQ (excludes non-spec)
system.cpu0.iq.iqInstsIssued               1379576406                       # Number of instructions issued
system.cpu0.iq.iqNonSpecInstsAdded            6310087                       # Number of non-speculative instructions added to the IQ
system.cpu0.iq.iqSquashedInstsExamined       67517988                       # Number of squashed instructions iterated over during squash; mainly for profiling
system.cpu0.iq.iqSquashedInstsIssued           274906                       # Number of squashed instructions issued
system.cpu0.iq.iqSquashedNonSpecRemoved           345                       # Number of squashed non-spec instructions that were removed
system.cpu0.iq.iqSquashedOperandsExamined     29624529                       # Number of squashed operands that are examined and possibly removed from graph
system.cpu0.iq.issued_per_cycle::samples   2434280864                       # Number of insts issued each cycle
system.cpu0.iq.issued_per_cycle::mean        0.566729                       # Number of insts issued each cycle
system.cpu0.iq.issued_per_cycle::stdev       0.810995                       # Number of insts issued each cycle
system.cpu0.iq.issued_per_cycle::underflows            0      0.00%      0.00% # Number of insts issued each cycle
system.cpu0.iq.issued_per_cycle::0         1432176922     58.83%     58.83% # Number of insts issued each cycle
system.cpu0.iq.issued_per_cycle::1          711564220     29.23%     88.06% # Number of insts issued each cycle
system.cpu0.iq.issued_per_cycle::2          227971740      9.37%     97.43% # Number of insts issued each cycle
system.cpu0.iq.issued_per_cycle::3           46046479      1.89%     99.32% # Number of insts issued each cycle
system.cpu0.iq.issued_per_cycle::4           12268636      0.50%     99.83% # Number of insts issued each cycle
system.cpu0.iq.issued_per_cycle::5            1821331      0.07%     99.90% # Number of insts issued each cycle
system.cpu0.iq.issued_per_cycle::6            1574249      0.06%     99.96% # Number of insts issued each cycle
system.cpu0.iq.issued_per_cycle::7             555720      0.02%     99.99% # Number of insts issued each cycle
system.cpu0.iq.issued_per_cycle::8             301567      0.01%    100.00% # Number of insts issued each cycle
system.cpu0.iq.issued_per_cycle::overflows            0      0.00%    100.00% # Number of insts issued each cycle
system.cpu0.iq.issued_per_cycle::min_value            0                       # Number of insts issued each cycle
system.cpu0.iq.issued_per_cycle::max_value            8                       # Number of insts issued each cycle
system.cpu0.iq.issued_per_cycle::total     2434280864                       # Number of insts issued each cycle
system.cpu0.iq.rate                          0.534027                       # Inst issue rate
system.cpu0.iq.vec_alu_accesses                     0                       # Number of vector alu accesses
system.cpu0.iq.vec_inst_queue_reads                 0                       # Number of vector instruction queue reads
system.cpu0.iq.vec_inst_queue_wakeup_accesses            0                       # Number of vector instruction queue wakeup accesses
system.cpu0.iq.vec_inst_queue_writes                0                       # Number of vector instruction queue writes
system.cpu0.itb.accesses                            0                       # DTB accesses
system.cpu0.itb.hits                                0                       # DTB hits
system.cpu0.itb.misses                              0                       # DTB misses
system.cpu0.itb.read_accesses                       0                       # DTB read accesses
system.cpu0.itb.read_hits                           0                       # DTB read hits
system.cpu0.itb.read_misses                         0                       # DTB read misses
system.cpu0.itb.write_accesses                      0                       # DTB write accesses
system.cpu0.itb.write_hits                          0                       # DTB write hits
system.cpu0.itb.write_misses                        0                       # DTB write misses
system.cpu0.memDep0.conflictingLoads         19051647                       # Number of conflicting loads.
system.cpu0.memDep0.conflictingStores         1951002                       # Number of conflicting stores.
system.cpu0.memDep0.insertedLoads           430029459                       # Number of loads inserted to the mem dependence unit.
system.cpu0.memDep0.insertedStores          158563158                       # Number of stores inserted to the mem dependence unit.
system.cpu0.misc_regfile_reads                   1897                       # number of misc regfile reads
system.cpu0.misc_regfile_writes                    22                       # number of misc regfile writes
system.cpu0.numCycles                      2583343929                       # number of cpu cycles simulated
system.cpu0.numWorkItemsCompleted                   0                       # number of work items this cpu completed
system.cpu0.numWorkItemsStarted                     0                       # number of work items this cpu started
system.cpu0.quiesceCycles                     9543077                       # Total number of cycles that CPU has spent quiesced or waiting for an interrupt
system.cpu0.rename.BlockCycles              412907521                       # Number of cycles rename is blocking
system.cpu0.rename.CommittedMaps            845196820                       # Number of HB maps that are committed
system.cpu0.rename.IQFullEvents              14914033                       # Number of times rename has blocked due to IQ full
system.cpu0.rename.IdleCycles               983214464                       # Number of cycles rename is idle
system.cpu0.rename.LQFullEvents              29688300                       # Number of times rename has blocked due to LQ full
system.cpu0.rename.ROBFullEvents                18109                       # Number of times rename has blocked due to ROB full
system.cpu0.rename.RenameLookups           1715207144                       # Number of register rename lookups that rename has made
system.cpu0.rename.RenamedInsts            1396295501                       # Number of instructions processed by rename
system.cpu0.rename.RenamedOperands          905311795                       # Number of destination operands rename has renamed
system.cpu0.rename.RunCycles                948501016                       # Number of cycles rename is running
system.cpu0.rename.SQFullEvents              35564757                       # Number of times rename has blocked due to SQ full
system.cpu0.rename.SquashCycles               8821390                       # Number of cycles rename is squashing
system.cpu0.rename.UnblockCycles             80678581                       # Number of cycles rename is unblocking
system.cpu0.rename.UndoneMaps                60114970                       # Number of HB maps that are undone due to squashing
system.cpu0.rename.fp_rename_lookups               44                       # Number of floating rename lookups
system.cpu0.rename.int_rename_lookups      1715207100                       # Number of integer rename lookups
system.cpu0.rename.serializeStallCycles        157892                       # count of cycles rename stalled for serializing inst
system.cpu0.rename.serializingInsts              5860                       # count of serializing insts renamed
system.cpu0.rename.skidInsts                 32177144                       # count of insts added to the skid buffer
system.cpu0.rename.tempSerializingInsts          5811                       # count of temporary serializing insts renamed
system.cpu0.rob.rob_reads                  3771978842                       # The number of ROB reads
system.cpu0.rob.rob_writes                 2786807467                       # The number of ROB writes
system.cpu0.timesIdled                       31132287                       # Number of times that the entire CPU went into an idle state and unscheduled itself
system.cpu0.workload.numSyscalls                 1864                       # Number of system calls
system.cpu1.branchPred.BTBCorrect                   0                       # Number of correct BTB predictions (this stat may not work properly.
system.cpu1.branchPred.BTBHitPct            90.010845                       # BTB Hit Percentage
system.cpu1.branchPred.BTBHits               21029286                       # Number of BTB hits
system.cpu1.branchPred.BTBLookups            23363058                       # Number of BTB lookups
system.cpu1.branchPred.RASInCorrect                 0                       # Number of incorrect RAS predictions.
system.cpu1.branchPred.condIncorrect          2815546                       # Number of conditional branches incorrect
system.cpu1.branchPred.condPredicted         31119835                       # Number of conditional branches predicted
system.cpu1.branchPred.indirectHits           1079472                       # Number of indirect target hits.
system.cpu1.branchPred.indirectLookups        1101815                       # Number of indirect predictor lookups.
system.cpu1.branchPred.indirectMisses           22343                       # Number of indirect misses.
system.cpu1.branchPred.lookups               35843725                       # Number of BP lookups
system.cpu1.branchPred.usedRAS                      0                       # Number of times the RAS was used to get a target.
system.cpu1.branchPredindirectMispredicted        48719                       # Number of mispredicted indirect branches.
system.cpu1.commit.amos                       2100001                       # Number of atomic instructions committed
system.cpu1.commit.branchMispredicts          2002796                       # The number of times a branch was mispredicted
system.cpu1.commit.branches                  28114735                       # Number of branches committed
system.cpu1.commit.bw_lim_events              4295017                       # number cycles where commit BW limit reached
system.cpu1.commit.commitNonSpecStalls        6300690                       # The number of times commit has been forced to stall to communicate backwards
system.cpu1.commit.commitSquashedInsts       18589566                       # The number of squashed insts skipped by commit
system.cpu1.commit.committedInsts           120041722                       # Number of instructions committed
system.cpu1.commit.committedOps             122141906                       # Number of ops (including micro ops) committed
system.cpu1.commit.committed_per_cycle::samples    489243175                       # Number of insts commited each cycle
system.cpu1.commit.committed_per_cycle::mean     0.249655                       # Number of insts commited each cycle
system.cpu1.commit.committed_per_cycle::stdev     1.015333                       # Number of insts commited each cycle
system.cpu1.commit.committed_per_cycle::underflows            0      0.00%      0.00% # Number of insts commited each cycle
system.cpu1.commit.committed_per_cycle::0    440314149     90.00%     90.00% # Number of insts commited each cycle
system.cpu1.commit.committed_per_cycle::1     24187076      4.94%     94.94% # Number of insts commited each cycle
system.cpu1.commit.committed_per_cycle::2      8642785      1.77%     96.71% # Number of insts commited each cycle
system.cpu1.commit.committed_per_cycle::3      6998755      1.43%     98.14% # Number of insts commited each cycle
system.cpu1.commit.committed_per_cycle::4      1587748      0.32%     98.46% # Number of insts commited each cycle
system.cpu1.commit.committed_per_cycle::5       729824      0.15%     98.61% # Number of insts commited each cycle
system.cpu1.commit.committed_per_cycle::6      2102000      0.43%     99.04% # Number of insts commited each cycle
system.cpu1.commit.committed_per_cycle::7       385821      0.08%     99.12% # Number of insts commited each cycle
system.cpu1.commit.committed_per_cycle::8      4295017      0.88%    100.00% # Number of insts commited each cycle
system.cpu1.commit.committed_per_cycle::overflows            0      0.00%    100.00% # Number of insts commited each cycle
system.cpu1.commit.committed_per_cycle::min_value            0                       # Number of insts commited each cycle
system.cpu1.commit.committed_per_cycle::max_value            8                       # Number of insts commited each cycle
system.cpu1.commit.committed_per_cycle::total    489243175                       # Number of insts commited each cycle
system.cpu1.commit.fp_insts                        12                       # Number of committed floating point instructions.
system.cpu1.commit.function_calls             1797351                       # Number of function calls committed.
system.cpu1.commit.int_insts                116579418                       # Number of committed integer instructions.
system.cpu1.commit.loads                     30172188                       # Number of loads committed
system.cpu1.commit.membars                    4200132                       # Number of memory barriers committed
system.cpu1.commit.op_class_0::No_OpClass      4200132      3.44%      3.44% # Class of committed instruction
system.cpu1.commit.op_class_0::IntAlu        76651851     62.76%     66.20% # Class of committed instruction
system.cpu1.commit.op_class_0::IntMult             44      0.00%     66.20% # Class of committed instruction
system.cpu1.commit.op_class_0::IntDiv              88      0.00%     66.20% # Class of committed instruction
system.cpu1.commit.op_class_0::FloatAdd             0      0.00%     66.20% # Class of committed instruction
system.cpu1.commit.op_class_0::FloatCmp             0      0.00%     66.20% # Class of committed instruction
system.cpu1.commit.op_class_0::FloatCvt             0      0.00%     66.20% # Class of committed instruction
system.cpu1.commit.op_class_0::FloatMult            0      0.00%     66.20% # Class of committed instruction
system.cpu1.commit.op_class_0::FloatMultAcc            0      0.00%     66.20% # Class of committed instruction
system.cpu1.commit.op_class_0::FloatDiv             0      0.00%     66.20% # Class of committed instruction
system.cpu1.commit.op_class_0::FloatMisc            0      0.00%     66.20% # Class of committed instruction
system.cpu1.commit.op_class_0::FloatSqrt            0      0.00%     66.20% # Class of committed instruction
system.cpu1.commit.op_class_0::SimdAdd              0      0.00%     66.20% # Class of committed instruction
system.cpu1.commit.op_class_0::SimdAddAcc            0      0.00%     66.20% # Class of committed instruction
system.cpu1.commit.op_class_0::SimdAlu              0      0.00%     66.20% # Class of committed instruction
system.cpu1.commit.op_class_0::SimdCmp              0      0.00%     66.20% # Class of committed instruction
system.cpu1.commit.op_class_0::SimdCvt              0      0.00%     66.20% # Class of committed instruction
system.cpu1.commit.op_class_0::SimdMisc             0      0.00%     66.20% # Class of committed instruction
system.cpu1.commit.op_class_0::SimdMult             0      0.00%     66.20% # Class of committed instruction
system.cpu1.commit.op_class_0::SimdMultAcc            0      0.00%     66.20% # Class of committed instruction
system.cpu1.commit.op_class_0::SimdShift            0      0.00%     66.20% # Class of committed instruction
system.cpu1.commit.op_class_0::SimdShiftAcc            0      0.00%     66.20% # Class of committed instruction
system.cpu1.commit.op_class_0::SimdDiv              0      0.00%     66.20% # Class of committed instruction
system.cpu1.commit.op_class_0::SimdSqrt             0      0.00%     66.20% # Class of committed instruction
system.cpu1.commit.op_class_0::SimdFloatAdd            0      0.00%     66.20% # Class of committed instruction
system.cpu1.commit.op_class_0::SimdFloatAlu            0      0.00%     66.20% # Class of committed instruction
system.cpu1.commit.op_class_0::SimdFloatCmp            0      0.00%     66.20% # Class of committed instruction
system.cpu1.commit.op_class_0::SimdFloatCvt            0      0.00%     66.20% # Class of committed instruction
system.cpu1.commit.op_class_0::SimdFloatDiv            0      0.00%     66.20% # Class of committed instruction
system.cpu1.commit.op_class_0::SimdFloatMisc            0      0.00%     66.20% # Class of committed instruction
system.cpu1.commit.op_class_0::SimdFloatMult            0      0.00%     66.20% # Class of committed instruction
system.cpu1.commit.op_class_0::SimdFloatMultAcc            0      0.00%     66.20% # Class of committed instruction
system.cpu1.commit.op_class_0::SimdFloatSqrt            0      0.00%     66.20% # Class of committed instruction
system.cpu1.commit.op_class_0::SimdReduceAdd            0      0.00%     66.20% # Class of committed instruction
system.cpu1.commit.op_class_0::SimdReduceAlu            0      0.00%     66.20% # Class of committed instruction
system.cpu1.commit.op_class_0::SimdReduceCmp            0      0.00%     66.20% # Class of committed instruction
system.cpu1.commit.op_class_0::SimdFloatReduceAdd            0      0.00%     66.20% # Class of committed instruction
system.cpu1.commit.op_class_0::SimdFloatReduceCmp            0      0.00%     66.20% # Class of committed instruction
system.cpu1.commit.op_class_0::SimdAes              0      0.00%     66.20% # Class of committed instruction
system.cpu1.commit.op_class_0::SimdAesMix            0      0.00%     66.20% # Class of committed instruction
system.cpu1.commit.op_class_0::SimdSha1Hash            0      0.00%     66.20% # Class of committed instruction
system.cpu1.commit.op_class_0::SimdSha1Hash2            0      0.00%     66.20% # Class of committed instruction
system.cpu1.commit.op_class_0::SimdSha256Hash            0      0.00%     66.20% # Class of committed instruction
system.cpu1.commit.op_class_0::SimdSha256Hash2            0      0.00%     66.20% # Class of committed instruction
system.cpu1.commit.op_class_0::SimdShaSigma2            0      0.00%     66.20% # Class of committed instruction
system.cpu1.commit.op_class_0::SimdShaSigma3            0      0.00%     66.20% # Class of committed instruction
system.cpu1.commit.op_class_0::SimdPredAlu            0      0.00%     66.20% # Class of committed instruction
system.cpu1.commit.op_class_0::MemRead       32272189     26.42%     92.62% # Class of committed instruction
system.cpu1.commit.op_class_0::MemWrite       9017590      7.38%    100.00% # Class of committed instruction
system.cpu1.commit.op_class_0::FloatMemRead            0      0.00%    100.00% # Class of committed instruction
system.cpu1.commit.op_class_0::FloatMemWrite           12      0.00%    100.00% # Class of committed instruction
system.cpu1.commit.op_class_0::IprAccess            0      0.00%    100.00% # Class of committed instruction
system.cpu1.commit.op_class_0::InstPrefetch            0      0.00%    100.00% # Class of committed instruction
system.cpu1.commit.op_class_0::total        122141906                       # Class of committed instruction
system.cpu1.commit.refs                      41289791                       # Number of memory references committed
system.cpu1.commit.swp_count                        0                       # Number of s/w prefetches committed
system.cpu1.commit.vec_insts                        0                       # Number of committed Vector instructions.
system.cpu1.committedInsts                  120041722                       # Number of Instructions Simulated
system.cpu1.committedOps                    122141906                       # Number of Ops (including micro ops) Simulated
system.cpu1.cpi                              4.108691                       # CPI: Cycles Per Instruction
system.cpu1.cpi_total                        4.108691                       # CPI: Total CPI of All Threads
system.cpu1.decode.BlockedCycles            393878709                       # Number of cycles decode is blocked
system.cpu1.decode.BranchMispred               864342                       # Number of times decode detected a branch misprediction
system.cpu1.decode.BranchResolved            20102631                       # Number of times decode resolved a branch
system.cpu1.decode.DecodedInsts             147419355                       # Number of instructions handled by decode
system.cpu1.decode.IdleCycles                26918485                       # Number of cycles decode is idle
system.cpu1.decode.RunCycles                 64707328                       # Number of cycles decode is running
system.cpu1.decode.SquashCycles               2004643                       # Number of cycles decode is squashing
system.cpu1.decode.SquashedInsts              2073702                       # Number of squashed instructions handled by decode
system.cpu1.decode.UnblockCycles              5420402                       # Number of cycles decode is unblocking
system.cpu1.dtb.accesses                            0                       # DTB accesses
system.cpu1.dtb.hits                                0                       # DTB hits
system.cpu1.dtb.misses                              0                       # DTB misses
system.cpu1.dtb.read_accesses                       0                       # DTB read accesses
system.cpu1.dtb.read_hits                           0                       # DTB read hits
system.cpu1.dtb.read_misses                         0                       # DTB read misses
system.cpu1.dtb.write_accesses                      0                       # DTB write accesses
system.cpu1.dtb.write_hits                          0                       # DTB write hits
system.cpu1.dtb.write_misses                        0                       # DTB write misses
system.cpu1.fetch.Branches                   35843725                       # Number of branches that fetch encountered
system.cpu1.fetch.CacheLines                 23655078                       # Number of cache lines fetched
system.cpu1.fetch.Cycles                    464571082                       # Number of cycles fetch has run and was not squashing or blocked
system.cpu1.fetch.IcacheSquashes               194836                       # Number of outstanding Icache misses that were squashed
system.cpu1.fetch.IcacheWaitRetryStallCycles           11                       # Number of stall cycles due to full MSHR
system.cpu1.fetch.Insts                     152555849                       # Number of instructions fetch has processed
system.cpu1.fetch.MiscStallCycles                   2                       # Number of cycles fetch has spent waiting on interrupts, or bad addresses, or out of MSHRs
system.cpu1.fetch.SquashCycles                5634786                       # Number of cycles fetch has spent squashing
system.cpu1.fetch.branchRate                 0.072674                       # Number of branch fetches per cycle
system.cpu1.fetch.icacheStallCycles          25541079                       # Number of cycles fetch is stalled on an Icache miss
system.cpu1.fetch.predictedBranches          22108758                       # Number of branches that fetch has predicted taken
system.cpu1.fetch.rate                       0.309309                       # Number of inst fetches per cycle
system.cpu1.fetch.rateDist::samples         492929567                       # Number of instructions fetched each cycle (Total)
system.cpu1.fetch.rateDist::mean             0.313749                       # Number of instructions fetched each cycle (Total)
system.cpu1.fetch.rateDist::stdev            0.745066                       # Number of instructions fetched each cycle (Total)
system.cpu1.fetch.rateDist::underflows              0      0.00%      0.00% # Number of instructions fetched each cycle (Total)
system.cpu1.fetch.rateDist::0               395039488     80.14%     80.14% # Number of instructions fetched each cycle (Total)
system.cpu1.fetch.rateDist::1                62143053     12.61%     92.75% # Number of instructions fetched each cycle (Total)
system.cpu1.fetch.rateDist::2                19483548      3.95%     96.70% # Number of instructions fetched each cycle (Total)
system.cpu1.fetch.rateDist::3                12651783      2.57%     99.27% # Number of instructions fetched each cycle (Total)
system.cpu1.fetch.rateDist::4                 2532958      0.51%     99.78% # Number of instructions fetched each cycle (Total)
system.cpu1.fetch.rateDist::5                 1014380      0.21%     99.99% # Number of instructions fetched each cycle (Total)
system.cpu1.fetch.rateDist::6                   63521      0.01%    100.00% # Number of instructions fetched each cycle (Total)
system.cpu1.fetch.rateDist::7                     694      0.00%    100.00% # Number of instructions fetched each cycle (Total)
system.cpu1.fetch.rateDist::8                     142      0.00%    100.00% # Number of instructions fetched each cycle (Total)
system.cpu1.fetch.rateDist::overflows               0      0.00%    100.00% # Number of instructions fetched each cycle (Total)
system.cpu1.fetch.rateDist::min_value               0                       # Number of instructions fetched each cycle (Total)
system.cpu1.fetch.rateDist::max_value               8                       # Number of instructions fetched each cycle (Total)
system.cpu1.fetch.rateDist::total           492929567                       # Number of instructions fetched each cycle (Total)
system.cpu1.fp_regfile_reads                       12                       # number of floating regfile reads
system.cpu1.idleCycles                         284822                       # Total number of cycles that the CPU has spent unscheduled due to idling
system.cpu1.iew.branchMispredicts             2125082                       # Number of branch mispredicts detected at execute
system.cpu1.iew.exec_branches                30858933                       # Number of branches executed
system.cpu1.iew.exec_nop                            0                       # number of nop insts executed
system.cpu1.iew.exec_rate                    0.274280                       # Inst execution rate
system.cpu1.iew.exec_refs                    46330675                       # number of memory reference insts executed
system.cpu1.iew.exec_stores                  11520454                       # Number of stores executed
system.cpu1.iew.exec_swp                            0                       # number of swp insts executed
system.cpu1.iew.iewBlockCycles              321449327                       # Number of cycles IEW is blocking
system.cpu1.iew.iewDispLoadInsts             35270205                       # Number of dispatched load instructions
system.cpu1.iew.iewDispNonSpecInsts           2100631                       # Number of dispatched non-speculative instructions
system.cpu1.iew.iewDispSquashedInsts          1714068                       # Number of squashed instructions skipped by dispatch
system.cpu1.iew.iewDispStoreInsts            11912678                       # Number of dispatched store instructions
system.cpu1.iew.iewDispatchedInsts          140684125                       # Number of instructions dispatched to IQ
system.cpu1.iew.iewExecLoadInsts             34810221                       # Number of load instructions executed
system.cpu1.iew.iewExecSquashedInsts          1984590                       # Number of squashed instructions skipped in execute
system.cpu1.iew.iewExecutedInsts            135278610                       # Number of executed instructions
system.cpu1.iew.iewIQFullEvents               1968410                       # Number of times the IQ has become full, causing a stall
system.cpu1.iew.iewIdleCycles                       0                       # Number of cycles IEW is idle
system.cpu1.iew.iewLSQFullEvents             12774067                       # Number of times the LSQ has become full, causing a stall
system.cpu1.iew.iewSquashCycles               2004643                       # Number of cycles IEW is squashing
system.cpu1.iew.iewUnblockCycles             17068594                       # Number of cycles IEW is unblocking
system.cpu1.iew.lsq.thread0.blockedLoads            0                       # Number of blocked loads due to partial load-store forwarding
system.cpu1.iew.lsq.thread0.cacheBlocked       186763                       # Number of times an access to memory failed due to the cache being blocked
system.cpu1.iew.lsq.thread0.forwLoads         1093863                       # Number of loads that had data forwarded from stores
system.cpu1.iew.lsq.thread0.ignoredResponses        29857                       # Number of memory responses ignored because the instruction is squashed
system.cpu1.iew.lsq.thread0.invAddrLoads            0                       # Number of loads ignored due to an invalid address
system.cpu1.iew.lsq.thread0.invAddrSwpfs            0                       # Number of software prefetches ignored due to an invalid address
system.cpu1.iew.lsq.thread0.memOrderViolation         2431                       # Number of memory ordering violations
system.cpu1.iew.lsq.thread0.rescheduledLoads        15484                       # Number of loads that were rescheduled
system.cpu1.iew.lsq.thread0.squashedLoads      5098017                       # Number of loads squashed
system.cpu1.iew.lsq.thread0.squashedStores       795075                       # Number of stores squashed
system.cpu1.iew.memOrderViolationEvents          2431                       # Number of memory order violations
system.cpu1.iew.predictedNotTakenIncorrect       545617                       # Number of branches that were predicted not taken incorrectly
system.cpu1.iew.predictedTakenIncorrect       1579465                       # Number of branches that were predicted taken incorrectly
system.cpu1.iew.wb_consumers                 78730033                       # num instructions consuming a value
system.cpu1.iew.wb_count                    133425860                       # cumulative count of insts written-back
system.cpu1.iew.wb_fanout                    0.834158                       # average fanout of values written-back
system.cpu1.iew.wb_producers                 65673269                       # num instructions producing a value
system.cpu1.iew.wb_rate                      0.270523                       # insts written-back per cycle
system.cpu1.iew.wb_sent                     133502420                       # cumulative count of insts sent to commit
system.cpu1.int_regfile_reads               171355201                       # number of integer regfile reads
system.cpu1.int_regfile_writes               90053641                       # number of integer regfile writes
system.cpu1.ipc                              0.243386                       # IPC: Instructions Per Cycle
system.cpu1.ipc_total                        0.243386                       # IPC: Total IPC of All Threads
system.cpu1.iq.FU_type_0::No_OpClass          4200235      3.06%      3.06% # Type of FU issued
system.cpu1.iq.FU_type_0::IntAlu             86156904     62.77%     65.83% # Type of FU issued
system.cpu1.iq.FU_type_0::IntMult                  47      0.00%     65.83% # Type of FU issued
system.cpu1.iq.FU_type_0::IntDiv                   88      0.00%     65.83% # Type of FU issued
system.cpu1.iq.FU_type_0::FloatAdd                  0      0.00%     65.83% # Type of FU issued
system.cpu1.iq.FU_type_0::FloatCmp                  0      0.00%     65.83% # Type of FU issued
system.cpu1.iq.FU_type_0::FloatCvt                  0      0.00%     65.83% # Type of FU issued
system.cpu1.iq.FU_type_0::FloatMult                 0      0.00%     65.83% # Type of FU issued
system.cpu1.iq.FU_type_0::FloatMultAcc              0      0.00%     65.83% # Type of FU issued
system.cpu1.iq.FU_type_0::FloatDiv                  0      0.00%     65.83% # Type of FU issued
system.cpu1.iq.FU_type_0::FloatMisc                 0      0.00%     65.83% # Type of FU issued
system.cpu1.iq.FU_type_0::FloatSqrt                 0      0.00%     65.83% # Type of FU issued
system.cpu1.iq.FU_type_0::SimdAdd                   0      0.00%     65.83% # Type of FU issued
system.cpu1.iq.FU_type_0::SimdAddAcc                0      0.00%     65.83% # Type of FU issued
system.cpu1.iq.FU_type_0::SimdAlu                   0      0.00%     65.83% # Type of FU issued
system.cpu1.iq.FU_type_0::SimdCmp                   0      0.00%     65.83% # Type of FU issued
system.cpu1.iq.FU_type_0::SimdCvt                   0      0.00%     65.83% # Type of FU issued
system.cpu1.iq.FU_type_0::SimdMisc                  0      0.00%     65.83% # Type of FU issued
system.cpu1.iq.FU_type_0::SimdMult                  0      0.00%     65.83% # Type of FU issued
system.cpu1.iq.FU_type_0::SimdMultAcc               0      0.00%     65.83% # Type of FU issued
system.cpu1.iq.FU_type_0::SimdShift                 0      0.00%     65.83% # Type of FU issued
system.cpu1.iq.FU_type_0::SimdShiftAcc              0      0.00%     65.83% # Type of FU issued
system.cpu1.iq.FU_type_0::SimdDiv                   0      0.00%     65.83% # Type of FU issued
system.cpu1.iq.FU_type_0::SimdSqrt                  0      0.00%     65.83% # Type of FU issued
system.cpu1.iq.FU_type_0::SimdFloatAdd              0      0.00%     65.83% # Type of FU issued
system.cpu1.iq.FU_type_0::SimdFloatAlu              0      0.00%     65.83% # Type of FU issued
system.cpu1.iq.FU_type_0::SimdFloatCmp              0      0.00%     65.83% # Type of FU issued
system.cpu1.iq.FU_type_0::SimdFloatCvt              0      0.00%     65.83% # Type of FU issued
system.cpu1.iq.FU_type_0::SimdFloatDiv              0      0.00%     65.83% # Type of FU issued
system.cpu1.iq.FU_type_0::SimdFloatMisc             0      0.00%     65.83% # Type of FU issued
system.cpu1.iq.FU_type_0::SimdFloatMult             0      0.00%     65.83% # Type of FU issued
system.cpu1.iq.FU_type_0::SimdFloatMultAcc            0      0.00%     65.83% # Type of FU issued
system.cpu1.iq.FU_type_0::SimdFloatSqrt             0      0.00%     65.83% # Type of FU issued
system.cpu1.iq.FU_type_0::SimdReduceAdd             0      0.00%     65.83% # Type of FU issued
system.cpu1.iq.FU_type_0::SimdReduceAlu             0      0.00%     65.83% # Type of FU issued
system.cpu1.iq.FU_type_0::SimdReduceCmp             0      0.00%     65.83% # Type of FU issued
system.cpu1.iq.FU_type_0::SimdFloatReduceAdd            0      0.00%     65.83% # Type of FU issued
system.cpu1.iq.FU_type_0::SimdFloatReduceCmp            0      0.00%     65.83% # Type of FU issued
system.cpu1.iq.FU_type_0::SimdAes                   0      0.00%     65.83% # Type of FU issued
system.cpu1.iq.FU_type_0::SimdAesMix                0      0.00%     65.83% # Type of FU issued
system.cpu1.iq.FU_type_0::SimdSha1Hash              0      0.00%     65.83% # Type of FU issued
system.cpu1.iq.FU_type_0::SimdSha1Hash2             0      0.00%     65.83% # Type of FU issued
system.cpu1.iq.FU_type_0::SimdSha256Hash            0      0.00%     65.83% # Type of FU issued
system.cpu1.iq.FU_type_0::SimdSha256Hash2            0      0.00%     65.83% # Type of FU issued
system.cpu1.iq.FU_type_0::SimdShaSigma2             0      0.00%     65.83% # Type of FU issued
system.cpu1.iq.FU_type_0::SimdShaSigma3             0      0.00%     65.83% # Type of FU issued
system.cpu1.iq.FU_type_0::SimdPredAlu               0      0.00%     65.83% # Type of FU issued
system.cpu1.iq.FU_type_0::MemRead            37420074     27.26%     93.09% # Type of FU issued
system.cpu1.iq.FU_type_0::MemWrite            9485840      6.91%    100.00% # Type of FU issued
system.cpu1.iq.FU_type_0::FloatMemRead              0      0.00%    100.00% # Type of FU issued
system.cpu1.iq.FU_type_0::FloatMemWrite            12      0.00%    100.00% # Type of FU issued
system.cpu1.iq.FU_type_0::IprAccess                 0      0.00%    100.00% # Type of FU issued
system.cpu1.iq.FU_type_0::InstPrefetch              0      0.00%    100.00% # Type of FU issued
system.cpu1.iq.FU_type_0::total             137263200                       # Type of FU issued
system.cpu1.iq.fp_alu_accesses                     14                       # Number of floating point alu accesses
system.cpu1.iq.fp_inst_queue_reads                 26                       # Number of floating instruction queue reads
system.cpu1.iq.fp_inst_queue_wakeup_accesses           12                       # Number of floating instruction queue wakeup accesses
system.cpu1.iq.fp_inst_queue_writes                12                       # Number of floating instruction queue writes
system.cpu1.iq.fu_busy_cnt                    3184416                       # FU busy when requested
system.cpu1.iq.fu_busy_rate                  0.023199                       # FU busy rate (busy events/executed inst)
system.cpu1.iq.fu_full::No_OpClass                  0      0.00%      0.00% # attempts to use FU when none available
system.cpu1.iq.fu_full::IntAlu                 774686     24.33%     24.33% # attempts to use FU when none available
system.cpu1.iq.fu_full::IntMult                     0      0.00%     24.33% # attempts to use FU when none available
system.cpu1.iq.fu_full::IntDiv                      0      0.00%     24.33% # attempts to use FU when none available
system.cpu1.iq.fu_full::FloatAdd                    0      0.00%     24.33% # attempts to use FU when none available
system.cpu1.iq.fu_full::FloatCmp                    0      0.00%     24.33% # attempts to use FU when none available
system.cpu1.iq.fu_full::FloatCvt                    0      0.00%     24.33% # attempts to use FU when none available
system.cpu1.iq.fu_full::FloatMult                   0      0.00%     24.33% # attempts to use FU when none available
system.cpu1.iq.fu_full::FloatMultAcc                0      0.00%     24.33% # attempts to use FU when none available
system.cpu1.iq.fu_full::FloatDiv                    0      0.00%     24.33% # attempts to use FU when none available
system.cpu1.iq.fu_full::FloatMisc                   0      0.00%     24.33% # attempts to use FU when none available
system.cpu1.iq.fu_full::FloatSqrt                   0      0.00%     24.33% # attempts to use FU when none available
system.cpu1.iq.fu_full::SimdAdd                     0      0.00%     24.33% # attempts to use FU when none available
system.cpu1.iq.fu_full::SimdAddAcc                  0      0.00%     24.33% # attempts to use FU when none available
system.cpu1.iq.fu_full::SimdAlu                     0      0.00%     24.33% # attempts to use FU when none available
system.cpu1.iq.fu_full::SimdCmp                     0      0.00%     24.33% # attempts to use FU when none available
system.cpu1.iq.fu_full::SimdCvt                     0      0.00%     24.33% # attempts to use FU when none available
system.cpu1.iq.fu_full::SimdMisc                    0      0.00%     24.33% # attempts to use FU when none available
system.cpu1.iq.fu_full::SimdMult                    0      0.00%     24.33% # attempts to use FU when none available
system.cpu1.iq.fu_full::SimdMultAcc                 0      0.00%     24.33% # attempts to use FU when none available
system.cpu1.iq.fu_full::SimdShift                   0      0.00%     24.33% # attempts to use FU when none available
system.cpu1.iq.fu_full::SimdShiftAcc                0      0.00%     24.33% # attempts to use FU when none available
system.cpu1.iq.fu_full::SimdDiv                     0      0.00%     24.33% # attempts to use FU when none available
system.cpu1.iq.fu_full::SimdSqrt                    0      0.00%     24.33% # attempts to use FU when none available
system.cpu1.iq.fu_full::SimdFloatAdd                0      0.00%     24.33% # attempts to use FU when none available
system.cpu1.iq.fu_full::SimdFloatAlu                0      0.00%     24.33% # attempts to use FU when none available
system.cpu1.iq.fu_full::SimdFloatCmp                0      0.00%     24.33% # attempts to use FU when none available
system.cpu1.iq.fu_full::SimdFloatCvt                0      0.00%     24.33% # attempts to use FU when none available
system.cpu1.iq.fu_full::SimdFloatDiv                0      0.00%     24.33% # attempts to use FU when none available
system.cpu1.iq.fu_full::SimdFloatMisc               0      0.00%     24.33% # attempts to use FU when none available
system.cpu1.iq.fu_full::SimdFloatMult               0      0.00%     24.33% # attempts to use FU when none available
system.cpu1.iq.fu_full::SimdFloatMultAcc            0      0.00%     24.33% # attempts to use FU when none available
system.cpu1.iq.fu_full::SimdFloatSqrt               0      0.00%     24.33% # attempts to use FU when none available
system.cpu1.iq.fu_full::SimdReduceAdd               0      0.00%     24.33% # attempts to use FU when none available
system.cpu1.iq.fu_full::SimdReduceAlu               0      0.00%     24.33% # attempts to use FU when none available
system.cpu1.iq.fu_full::SimdReduceCmp               0      0.00%     24.33% # attempts to use FU when none available
system.cpu1.iq.fu_full::SimdFloatReduceAdd            0      0.00%     24.33% # attempts to use FU when none available
system.cpu1.iq.fu_full::SimdFloatReduceCmp            0      0.00%     24.33% # attempts to use FU when none available
system.cpu1.iq.fu_full::SimdAes                     0      0.00%     24.33% # attempts to use FU when none available
system.cpu1.iq.fu_full::SimdAesMix                  0      0.00%     24.33% # attempts to use FU when none available
system.cpu1.iq.fu_full::SimdSha1Hash                0      0.00%     24.33% # attempts to use FU when none available
system.cpu1.iq.fu_full::SimdSha1Hash2               0      0.00%     24.33% # attempts to use FU when none available
system.cpu1.iq.fu_full::SimdSha256Hash              0      0.00%     24.33% # attempts to use FU when none available
system.cpu1.iq.fu_full::SimdSha256Hash2             0      0.00%     24.33% # attempts to use FU when none available
system.cpu1.iq.fu_full::SimdShaSigma2               0      0.00%     24.33% # attempts to use FU when none available
system.cpu1.iq.fu_full::SimdShaSigma3               0      0.00%     24.33% # attempts to use FU when none available
system.cpu1.iq.fu_full::SimdPredAlu                 0      0.00%     24.33% # attempts to use FU when none available
system.cpu1.iq.fu_full::MemRead               1867928     58.66%     82.99% # attempts to use FU when none available
[...]
system.cpu1.dcache.WriteReq_hits::.cpu1.data      2630839                       # number of WriteReq hits
system.cpu1.dcache.WriteReq_hits::total       2630839                       # number of WriteReq hits
system.cpu1.dcache.WriteReq_misses::.cpu1.data      3281663                       # number of WriteReq misses
system.cpu1.dcache.WriteReq_misses::total      3281663                       # number of WriteReq misses
system.cpu1.dcache.WriteReq_miss_latency::.cpu1.data 256959685491                       # number of WriteReq miss cycles
system.cpu1.dcache.WriteReq_miss_latency::total 256959685491                       # number of WriteReq miss cycles
system.cpu1.dcache.WriteReq_accesses::.cpu1.data      5912502                       # number of WriteReq accesses(hits+misses)
system.cpu1.dcache.WriteReq_accesses::total      5912502                       # number of WriteReq accesses(hits+misses)
system.cpu1.dcache.WriteReq_miss_rate::.cpu1.data     0.555038                       # miss rate for WriteReq accesses
system.cpu1.dcache.WriteReq_miss_rate::total     0.555038                       # miss rate for WriteReq accesses
system.cpu1.dcache.WriteReq_avg_miss_latency::.cpu1.data 78301.667627                       # average WriteReq miss latency
system.cpu1.dcache.WriteReq_avg_miss_latency::total 78301.667627                       # average WriteReq miss latency
system.cpu1.dcache.WriteReq_mshr_hits::.cpu1.data      3057795                       # number of WriteReq MSHR hits
system.cpu1.dcache.WriteReq_mshr_hits::total      3057795                       # number of WriteReq MSHR hits
system.cpu1.dcache.WriteReq_mshr_misses::.cpu1.data       223868                       # number of WriteReq MSHR misses
system.cpu1.dcache.WriteReq_mshr_misses::total       223868                       # number of WriteReq MSHR misses
system.cpu1.dcache.WriteReq_mshr_miss_latency::.cpu1.data  22509534664                       # number of WriteReq MSHR miss cycles
system.cpu1.dcache.WriteReq_mshr_miss_latency::total  22509534664                       # number of WriteReq MSHR miss cycles
system.cpu1.dcache.WriteReq_mshr_miss_rate::.cpu1.data     0.037863                       # mshr miss rate for WriteReq accesses
system.cpu1.dcache.WriteReq_mshr_miss_rate::total     0.037863                       # mshr miss rate for WriteReq accesses
system.cpu1.dcache.WriteReq_avg_mshr_miss_latency::.cpu1.data 100548.245680                       # average WriteReq mshr miss latency
system.cpu1.dcache.WriteReq_avg_mshr_miss_latency::total 100548.245680                       # average WriteReq mshr miss latency
system.cpu1.dcache.LoadLockedReq_hits::.cpu1.data      2177235                       # number of LoadLockedReq hits
system.cpu1.dcache.LoadLockedReq_hits::total      2177235                       # number of LoadLockedReq hits
system.cpu1.dcache.LoadLockedReq_misses::.cpu1.data         7860                       # number of LoadLockedReq misses
system.cpu1.dcache.LoadLockedReq_misses::total         7860                       # number of LoadLockedReq misses
system.cpu1.dcache.LoadLockedReq_miss_latency::.cpu1.data    181529000                       # number of LoadLockedReq miss cycles
system.cpu1.dcache.LoadLockedReq_miss_latency::total    181529000                       # number of LoadLockedReq miss cycles
system.cpu1.dcache.LoadLockedReq_accesses::.cpu1.data      2185095                       # number of LoadLockedReq accesses(hits+misses)
system.cpu1.dcache.LoadLockedReq_accesses::total      2185095                       # number of LoadLockedReq accesses(hits+misses)
system.cpu1.dcache.LoadLockedReq_miss_rate::.cpu1.data     0.003597                       # miss rate for LoadLockedReq accesses
system.cpu1.dcache.LoadLockedReq_miss_rate::total     0.003597                       # miss rate for LoadLockedReq accesses
system.cpu1.dcache.LoadLockedReq_avg_miss_latency::.cpu1.data 23095.292621                       # average LoadLockedReq miss latency
system.cpu1.dcache.LoadLockedReq_avg_miss_latency::total 23095.292621                       # average LoadLockedReq miss latency
system.cpu1.dcache.LoadLockedReq_mshr_hits::.cpu1.data         1145                       # number of LoadLockedReq MSHR hits
system.cpu1.dcache.LoadLockedReq_mshr_hits::total         1145                       # number of LoadLockedReq MSHR hits
system.cpu1.dcache.LoadLockedReq_mshr_misses::.cpu1.data         6715                       # number of LoadLockedReq MSHR misses
system.cpu1.dcache.LoadLockedReq_mshr_misses::total         6715                       # number of LoadLockedReq MSHR misses
system.cpu1.dcache.LoadLockedReq_mshr_miss_latency::.cpu1.data    153939500                       # number of LoadLockedReq MSHR miss cycles
system.cpu1.dcache.LoadLockedReq_mshr_miss_latency::total    153939500                       # number of LoadLockedReq MSHR miss cycles
system.cpu1.dcache.LoadLockedReq_mshr_miss_rate::.cpu1.data     0.003073                       # mshr miss rate for LoadLockedReq accesses
system.cpu1.dcache.LoadLockedReq_mshr_miss_rate::total     0.003073                       # mshr miss rate for LoadLockedReq accesses
system.cpu1.dcache.LoadLockedReq_avg_mshr_miss_latency::.cpu1.data 22924.720774                       # average LoadLockedReq mshr miss latency
system.cpu1.dcache.LoadLockedReq_avg_mshr_miss_latency::total 22924.720774                       # average LoadLockedReq mshr miss latency
system.cpu1.dcache.StoreCondReq_hits::.cpu1.data      2183694                       # number of StoreCondReq hits
system.cpu1.dcache.StoreCondReq_hits::total      2183694                       # number of StoreCondReq hits
system.cpu1.dcache.StoreCondReq_misses::.cpu1.data         1106                       # number of StoreCondReq misses
system.cpu1.dcache.StoreCondReq_misses::total         1106                       # number of StoreCondReq misses
system.cpu1.dcache.StoreCondReq_miss_latency::.cpu1.data     19058000                       # number of StoreCondReq miss cycles
system.cpu1.dcache.StoreCondReq_miss_latency::total     19058000                       # number of StoreCondReq miss cycles
system.cpu1.dcache.StoreCondReq_accesses::.cpu1.data      2184800                       # number of StoreCondReq accesses(hits+misses)
system.cpu1.dcache.StoreCondReq_accesses::total      2184800                       # number of StoreCondReq accesses(hits+misses)
system.cpu1.dcache.StoreCondReq_miss_rate::.cpu1.data     0.000506                       # miss rate for StoreCondReq accesses
system.cpu1.dcache.StoreCondReq_miss_rate::total     0.000506                       # miss rate for StoreCondReq accesses
system.cpu1.dcache.StoreCondReq_avg_miss_latency::.cpu1.data 17231.464738                       # average StoreCondReq miss latency
system.cpu1.dcache.StoreCondReq_avg_miss_latency::total 17231.464738                       # average StoreCondReq miss latency
system.cpu1.dcache.StoreCondReq_mshr_misses::.cpu1.data         1064                       # number of StoreCondReq MSHR misses
system.cpu1.dcache.StoreCondReq_mshr_misses::total         1064                       # number of StoreCondReq MSHR misses
system.cpu1.dcache.StoreCondReq_mshr_miss_latency::.cpu1.data     18000000                       # number of StoreCondReq MSHR miss cycles
system.cpu1.dcache.StoreCondReq_mshr_miss_latency::total     18000000                       # number of StoreCondReq MSHR miss cycles
system.cpu1.dcache.StoreCondReq_mshr_miss_rate::.cpu1.data     0.000487                       # mshr miss rate for StoreCondReq accesses
system.cpu1.dcache.StoreCondReq_mshr_miss_rate::total     0.000487                       # mshr miss rate for StoreCondReq accesses
system.cpu1.dcache.StoreCondReq_avg_mshr_miss_latency::.cpu1.data 16917.293233                       # average StoreCondReq mshr miss latency
system.cpu1.dcache.StoreCondReq_avg_mshr_miss_latency::total 16917.293233                       # average StoreCondReq mshr miss latency
system.cpu1.dcache.StoreCondFailReq_miss_latency::.cpu1.data       201000                       # number of StoreCondFailReq miss cycles
system.cpu1.dcache.StoreCondFailReq_miss_latency::total       201000                       # number of StoreCondFailReq miss cycles
system.cpu1.dcache.StoreCondFailReq_avg_miss_latency::.cpu1.data          inf                       # average StoreCondFailReq miss latency
system.cpu1.dcache.StoreCondFailReq_avg_miss_latency::total          inf                       # average StoreCondFailReq miss latency
system.cpu1.dcache.StoreCondFailReq_mshr_miss_latency::.cpu1.data       195000                       # number of StoreCondFailReq MSHR miss cycles
system.cpu1.dcache.StoreCondFailReq_mshr_miss_latency::total       195000                       # number of StoreCondFailReq MSHR miss cycles
system.cpu1.dcache.StoreCondFailReq_avg_mshr_miss_latency::.cpu1.data          inf                       # average StoreCondFailReq mshr miss latency
system.cpu1.dcache.StoreCondFailReq_avg_mshr_miss_latency::total          inf                       # average StoreCondFailReq mshr miss latency
system.cpu1.dcache.SwapReq_hits::.cpu1.data          504                       # number of SwapReq hits
system.cpu1.dcache.SwapReq_hits::total            504                       # number of SwapReq hits
system.cpu1.dcache.SwapReq_misses::.cpu1.data         1874                       # number of SwapReq misses
system.cpu1.dcache.SwapReq_misses::total         1874                       # number of SwapReq misses
system.cpu1.dcache.SwapReq_miss_latency::.cpu1.data    141076000                       # number of SwapReq miss cycles
system.cpu1.dcache.SwapReq_miss_latency::total    141076000                       # number of SwapReq miss cycles
system.cpu1.dcache.SwapReq_accesses::.cpu1.data         2378                       # number of SwapReq accesses(hits+misses)
system.cpu1.dcache.SwapReq_accesses::total         2378                       # number of SwapReq accesses(hits+misses)
system.cpu1.dcache.SwapReq_miss_rate::.cpu1.data     0.788057                       # miss rate for SwapReq accesses
system.cpu1.dcache.SwapReq_miss_rate::total     0.788057                       # miss rate for SwapReq accesses
system.cpu1.dcache.SwapReq_avg_miss_latency::.cpu1.data 75280.683031                       # average SwapReq miss latency
system.cpu1.dcache.SwapReq_avg_miss_latency::total 75280.683031                       # average SwapReq miss latency
system.cpu1.dcache.SwapReq_mshr_misses::.cpu1.data         1874                       # number of SwapReq MSHR misses
system.cpu1.dcache.SwapReq_mshr_misses::total         1874                       # number of SwapReq MSHR misses
system.cpu1.dcache.SwapReq_mshr_miss_latency::.cpu1.data    139202000                       # number of SwapReq MSHR miss cycles
system.cpu1.dcache.SwapReq_mshr_miss_latency::total    139202000                       # number of SwapReq MSHR miss cycles
system.cpu1.dcache.SwapReq_mshr_miss_rate::.cpu1.data     0.788057                       # mshr miss rate for SwapReq accesses
system.cpu1.dcache.SwapReq_mshr_miss_rate::total     0.788057                       # mshr miss rate for SwapReq accesses
system.cpu1.dcache.SwapReq_avg_mshr_miss_latency::.cpu1.data 74280.683031                       # average SwapReq mshr miss latency
system.cpu1.dcache.SwapReq_avg_mshr_miss_latency::total 74280.683031                       # average SwapReq mshr miss latency
system.cpu1.dcache.tags.pwrStateResidencyTicks::UNDEFINED 1118300468500                       # Cumulative time (in ticks) in various power states
system.cpu1.dcache.tags.tagsinuse           31.993350                       # Cycle average of tags in use
system.cpu1.dcache.tags.total_refs          168028393                       # Total number of references to valid blocks.
system.cpu1.dcache.tags.sampled_refs         13144990                       # Sample count of references to valid blocks.
system.cpu1.dcache.tags.avg_refs            12.782695                       # Average number of references to valid blocks.
system.cpu1.dcache.tags.warmup_cycle                0                       # Cycle when the warmup percentage was hit.
system.cpu1.dcache.tags.occ_blocks::.cpu1.data    31.993350                       # Average occupied blocks per requestor
system.cpu1.dcache.tags.occ_percent::.cpu1.data     0.999792                       # Average percentage of cache occupancy
system.cpu1.dcache.tags.occ_percent::total     0.999792                       # Average percentage of cache occupancy
system.cpu1.dcache.tags.occ_task_id_blocks::1024           31                       # Occupied blocks per task id
system.cpu1.dcache.tags.age_task_id_blocks_1024::2           31                       # Occupied blocks per task id
system.cpu1.dcache.tags.occ_task_id_percent::1024     0.968750                       # Percentage of cache occupancy per task id
system.cpu1.dcache.tags.tag_accesses        390535040                       # Number of tag accesses
system.cpu1.dcache.tags.data_accesses       390535040                       # Number of data accesses
system.cpu_clk_domain.clock                       500                       # Clock period in ticks
system.tol2bus.pwrStateResidencyTicks::UNDEFINED 1118300468500                       # Cumulative time (in ticks) in various power states
system.tol2bus.trans_dist::ReadResp          30833588                       # Transaction distribution
system.tol2bus.trans_dist::WritebackDirty     10702833                       # Transaction distribution
system.tol2bus.trans_dist::WritebackClean     25741110                       # Transaction distribution
system.tol2bus.trans_dist::CleanEvict        59954400                       # Transaction distribution
system.tol2bus.trans_dist::HardPFReq         23274230                       # Transaction distribution
system.tol2bus.trans_dist::HardPFResp               4                       # Transaction distribution
system.tol2bus.trans_dist::UpgradeReq            9490                       # Transaction distribution
system.tol2bus.trans_dist::SCUpgradeReq          2190                       # Transaction distribution
system.tol2bus.trans_dist::UpgradeResp          11680                       # Transaction distribution
system.tol2bus.trans_dist::SCUpgradeFailReq            7                       # Transaction distribution
system.tol2bus.trans_dist::UpgradeFailResp            7                       # Transaction distribution
system.tol2bus.trans_dist::ReadExReq           492757                       # Transaction distribution
system.tol2bus.trans_dist::ReadExResp          492757                       # Transaction distribution
system.tol2bus.trans_dist::ReadCleanReq        430277                       # Transaction distribution
system.tol2bus.trans_dist::ReadSharedReq     30403311                       # Transaction distribution
system.tol2bus.trans_dist::InvalidateReq          208                       # Transaction distribution
system.tol2bus.trans_dist::InvalidateResp          208                       # Transaction distribution
system.tol2bus.pkt_count_system.cpu0.icache.mem_side::system.l2.cpu_side      1273902                       # Packet count per connected master and slave (bytes)
system.tol2bus.pkt_count_system.cpu0.dcache.mem_side::system.l2.cpu_side     53248599                       # Packet count per connected master and slave (bytes)
system.tol2bus.pkt_count_system.cpu1.icache.mem_side::system.l2.cpu_side        16929                       # Packet count per connected master and slave (bytes)
system.tol2bus.pkt_count_system.cpu1.dcache.mem_side::system.l2.cpu_side     39432447                       # Packet count per connected master and slave (bytes)
system.tol2bus.pkt_count::total              93971877                       # Packet count per connected master and slave (bytes)
system.tol2bus.pkt_size_system.cpu0.icache.mem_side::system.l2.cpu_side     54353152                       # Cumulative packet size per connected master and slave (bytes)
system.tol2bus.pkt_size_system.cpu0.dcache.mem_side::system.l2.cpu_side   2271191040                       # Cumulative packet size per connected master and slave (bytes)
system.tol2bus.pkt_size_system.cpu1.icache.mem_side::system.l2.cpu_side       722304                       # Cumulative packet size per connected master and slave (bytes)
system.tol2bus.pkt_size_system.cpu1.dcache.mem_side::system.l2.cpu_side   1681641792                       # Cumulative packet size per connected master and slave (bytes)
system.tol2bus.pkt_size::total             4007908288                       # Cumulative packet size per connected master and slave (bytes)
system.tol2bus.snoops                        88377184                       # Total snoops (count)
system.tol2bus.snoopTraffic                 329391104                       # Total snoop traffic (bytes)
system.tol2bus.snoop_fanout::samples        119696130                       # Request fanout histogram
system.tol2bus.snoop_fanout::mean            0.229032                       # Request fanout histogram
system.tol2bus.snoop_fanout::stdev           0.424955                       # Request fanout histogram
system.tol2bus.snoop_fanout::underflows             0      0.00%      0.00% # Request fanout histogram
system.tol2bus.snoop_fanout::0               92521984     77.30%     77.30% # Request fanout histogram
system.tol2bus.snoop_fanout::1               26934106     22.50%     99.80% # Request fanout histogram
system.tol2bus.snoop_fanout::2                 240040      0.20%    100.00% # Request fanout histogram
system.tol2bus.snoop_fanout::3                      0      0.00%    100.00% # Request fanout histogram
system.tol2bus.snoop_fanout::4                      0      0.00%    100.00% # Request fanout histogram
system.tol2bus.snoop_fanout::5                      0      0.00%    100.00% # Request fanout histogram
system.tol2bus.snoop_fanout::6                      0      0.00%    100.00% # Request fanout histogram
system.tol2bus.snoop_fanout::7                      0      0.00%    100.00% # Request fanout histogram
system.tol2bus.snoop_fanout::8                      0      0.00%    100.00% # Request fanout histogram
system.tol2bus.snoop_fanout::overflows              0      0.00%    100.00% # Request fanout histogram
system.tol2bus.snoop_fanout::min_value              0                       # Request fanout histogram
system.tol2bus.snoop_fanout::max_value              2                       # Request fanout histogram
system.tol2bus.snoop_fanout::total          119696130                       # Request fanout histogram
system.tol2bus.reqLayer0.occupancy        62643341334                       # Layer occupancy (ticks)
system.tol2bus.reqLayer0.utilization              5.6                       # Layer utilization (%)
system.tol2bus.respLayer1.occupancy       26637745361                       # Layer occupancy (ticks)
system.tol2bus.respLayer1.utilization             2.4                       # Layer utilization (%)
system.tol2bus.respLayer0.occupancy         637126648                       # Layer occupancy (ticks)
system.tol2bus.respLayer0.utilization             0.1                       # Layer utilization (%)
system.tol2bus.respLayer3.occupancy       19728822554                       # Layer occupancy (ticks)
system.tol2bus.respLayer3.utilization             1.8                       # Layer utilization (%)
system.tol2bus.respLayer2.occupancy           8510907                       # Layer occupancy (ticks)
system.tol2bus.respLayer2.utilization             0.0                       # Layer utilization (%)
system.tol2bus.snoopLayer0.occupancy             6006                       # Layer occupancy (ticks)
system.tol2bus.snoopLayer0.utilization            0.0                       # Layer utilization (%)

---------- End Simulation Statistics   ----------
