
---------- Begin Simulation Statistics ----------
final_tick                               1323644161000                       # Number of ticks from beginning of simulation (restored from checkpoints and never reset)
host_inst_rate                                 105729                       # Simulator instruction rate (inst/s)
host_mem_usage                                 703632                       # Number of bytes of host memory used
host_op_rate                                   106039                       # Simulator op (including micro ops) rate (op/s)
host_seconds                                 13587.78                       # Real time elapsed on the host
host_tick_rate                               97414282                       # Simulator tick rate (ticks/s)
sim_freq                                 1000000000000                       # Frequency of simulated ticks
sim_insts                                  1436626150                       # Number of instructions simulated
sim_ops                                    1440829902                       # Number of ops (including micro ops) simulated
sim_seconds                                  1.323644                       # Number of seconds simulated
sim_ticks                                1323644161000                       # Number of ticks simulated
system.cpu0.branchPred.BTBCorrect                   0                       # Number of correct BTB predictions (this stat may not work properly.
system.cpu0.branchPred.BTBHitPct            87.287170                       # BTB Hit Percentage
system.cpu0.branchPred.BTBHits              184246746                       # Number of BTB hits
system.cpu0.branchPred.BTBLookups           211081132                       # Number of BTB lookups
system.cpu0.branchPred.RASInCorrect                 0                       # Number of incorrect RAS predictions.
system.cpu0.branchPred.condIncorrect         16777159                       # Number of conditional branches incorrect
system.cpu0.branchPred.condPredicted        288495792                       # Number of conditional branches predicted
system.cpu0.branchPred.indirectHits          22938530                       # Number of indirect target hits.
system.cpu0.branchPred.indirectLookups       24554030                       # Number of indirect predictor lookups.
system.cpu0.branchPred.indirectMisses         1615500                       # Number of indirect misses.
system.cpu0.branchPred.lookups              363990492                       # Number of BP lookups
system.cpu0.branchPred.usedRAS                      0                       # Number of times the RAS was used to get a target.
system.cpu0.branchPredindirectMispredicted      2194901                       # Number of mispredicted indirect branches.
system.cpu0.commit.amos                       2100268                       # Number of atomic instructions committed
system.cpu0.commit.branchMispredicts         10585245                       # The number of times a branch was mispredicted
system.cpu0.commit.branches                 329546208                       # Number of branches committed
system.cpu0.commit.bw_lim_events             36380318                       # number cycles where commit BW limit reached
system.cpu0.commit.commitNonSpecStalls        6309738                       # The number of times commit has been forced to stall to communicate backwards
system.cpu0.commit.commitSquashedInsts      132669276                       # The number of squashed insts skipped by commit
system.cpu0.commit.committedInsts          1316552504                       # Number of instructions committed
system.cpu0.commit.committedOps            1318656079                       # Number of ops (including micro ops) committed
system.cpu0.commit.committed_per_cycle::samples   2438715980                       # Number of insts commited each cycle
system.cpu0.commit.committed_per_cycle::mean     0.540717                       # Number of insts commited each cycle
system.cpu0.commit.committed_per_cycle::stdev     1.299100                       # Number of insts commited each cycle
system.cpu0.commit.committed_per_cycle::underflows            0      0.00%      0.00% # Number of insts commited each cycle
system.cpu0.commit.committed_per_cycle::0   1801048466     73.85%     73.85% # Number of insts commited each cycle
system.cpu0.commit.committed_per_cycle::1    372618207     15.28%     89.13% # Number of insts commited each cycle
system.cpu0.commit.committed_per_cycle::2     98323139      4.03%     93.16% # Number of insts commited each cycle
system.cpu0.commit.committed_per_cycle::3     91413999      3.75%     96.91% # Number of insts commited each cycle
system.cpu0.commit.committed_per_cycle::4     23119461      0.95%     97.86% # Number of insts commited each cycle
system.cpu0.commit.committed_per_cycle::5      7397440      0.30%     98.16% # Number of insts commited each cycle
system.cpu0.commit.committed_per_cycle::6      4262641      0.17%     98.34% # Number of insts commited each cycle
system.cpu0.commit.committed_per_cycle::7      4152309      0.17%     98.51% # Number of insts commited each cycle
system.cpu0.commit.committed_per_cycle::8     36380318      1.49%    100.00% # Number of insts commited each cycle
system.cpu0.commit.committed_per_cycle::overflows            0      0.00%    100.00% # Number of insts commited each cycle
system.cpu0.commit.committed_per_cycle::min_value            0                       # Number of insts commited each cycle
system.cpu0.commit.committed_per_cycle::max_value            8                       # Number of insts commited each cycle
system.cpu0.commit.committed_per_cycle::total   2438715980                       # Number of insts commited each cycle
system.cpu0.commit.fp_insts                        50                       # Number of committed floating point instructions.
system.cpu0.commit.function_calls            25143434                       # Number of function calls committed.
system.cpu0.commit.int_insts               1273924188                       # Number of committed integer instructions.
system.cpu0.commit.loads                    405171510                       # Number of loads committed
system.cpu0.commit.membars                    4203734                       # Number of memory barriers committed
system.cpu0.commit.op_class_0::No_OpClass      4203740      0.32%      0.32% # Class of committed instruction
system.cpu0.commit.op_class_0::IntAlu       742064532     56.27%     56.59% # Class of committed instruction
system.cpu0.commit.op_class_0::IntMult       11831782      0.90%     57.49% # Class of committed instruction
system.cpu0.commit.op_class_0::IntDiv         2099835      0.16%     57.65% # Class of committed instruction
system.cpu0.commit.op_class_0::FloatAdd             0      0.00%     57.65% # Class of committed instruction
system.cpu0.commit.op_class_0::FloatCmp             4      0.00%     57.65% # Class of committed instruction
system.cpu0.commit.op_class_0::FloatCvt            12      0.00%     57.65% # Class of committed instruction
system.cpu0.commit.op_class_0::FloatMult            0      0.00%     57.65% # Class of committed instruction
system.cpu0.commit.op_class_0::FloatMultAcc            0      0.00%     57.65% # Class of committed instruction
system.cpu0.commit.op_class_0::FloatDiv             2      0.00%     57.65% # Class of committed instruction
system.cpu0.commit.op_class_0::FloatMisc            4      0.00%     57.65% # Class of committed instruction
system.cpu0.commit.op_class_0::FloatSqrt            0      0.00%     57.65% # Class of committed instruction
system.cpu0.commit.op_class_0::SimdAdd              0      0.00%     57.65% # Class of committed instruction
system.cpu0.commit.op_class_0::SimdAddAcc            0      0.00%     57.65% # Class of committed instruction
system.cpu0.commit.op_class_0::SimdAlu              0      0.00%     57.65% # Class of committed instruction
system.cpu0.commit.op_class_0::SimdCmp              0      0.00%     57.65% # Class of committed instruction
system.cpu0.commit.op_class_0::SimdCvt              0      0.00%     57.65% # Class of committed instruction
system.cpu0.commit.op_class_0::SimdMisc             0      0.00%     57.65% # Class of committed instruction
system.cpu0.commit.op_class_0::SimdMult             0      0.00%     57.65% # Class of committed instruction
system.cpu0.commit.op_class_0::SimdMultAcc            0      0.00%     57.65% # Class of committed instruction
system.cpu0.commit.op_class_0::SimdShift            0      0.00%     57.65% # Class of committed instruction
system.cpu0.commit.op_class_0::SimdShiftAcc            0      0.00%     57.65% # Class of committed instruction
system.cpu0.commit.op_class_0::SimdDiv              0      0.00%     57.65% # Class of committed instruction
system.cpu0.commit.op_class_0::SimdSqrt             0      0.00%     57.65% # Class of committed instruction
system.cpu0.commit.op_class_0::SimdFloatAdd            0      0.00%     57.65% # Class of committed instruction
system.cpu0.commit.op_class_0::SimdFloatAlu            0      0.00%     57.65% # Class of committed instruction
system.cpu0.commit.op_class_0::SimdFloatCmp            0      0.00%     57.65% # Class of committed instruction
system.cpu0.commit.op_class_0::SimdFloatCvt            0      0.00%     57.65% # Class of committed instruction
system.cpu0.commit.op_class_0::SimdFloatDiv            0      0.00%     57.65% # Class of committed instruction
system.cpu0.commit.op_class_0::SimdFloatMisc            0      0.00%     57.65% # Class of committed instruction
system.cpu0.commit.op_class_0::SimdFloatMult            0      0.00%     57.65% # Class of committed instruction
system.cpu0.commit.op_class_0::SimdFloatMultAcc            0      0.00%     57.65% # Class of committed instruction
system.cpu0.commit.op_class_0::SimdFloatSqrt            0      0.00%     57.65% # Class of committed instruction
system.cpu0.commit.op_class_0::SimdReduceAdd            0      0.00%     57.65% # Class of committed instruction
system.cpu0.commit.op_class_0::SimdReduceAlu            0      0.00%     57.65% # Class of committed instruction
system.cpu0.commit.op_class_0::SimdReduceCmp            0      0.00%     57.65% # Class of committed instruction
system.cpu0.commit.op_class_0::SimdFloatReduceAdd            0      0.00%     57.65% # Class of committed instruction
system.cpu0.commit.op_class_0::SimdFloatReduceCmp            0      0.00%     57.65% # Class of committed instruction
system.cpu0.commit.op_class_0::SimdAes              0      0.00%     57.65% # Class of committed instruction
system.cpu0.commit.op_class_0::SimdAesMix            0      0.00%     57.65% # Class of committed instruction
system.cpu0.commit.op_class_0::SimdSha1Hash            0      0.00%     57.65% # Class of committed instruction
system.cpu0.commit.op_class_0::SimdSha1Hash2            0      0.00%     57.65% # Class of committed instruction
system.cpu0.commit.op_class_0::SimdSha256Hash            0      0.00%     57.65% # Class of committed instruction
system.cpu0.commit.op_class_0::SimdSha256Hash2            0      0.00%     57.65% # Class of committed instruction
system.cpu0.commit.op_class_0::SimdShaSigma2            0      0.00%     57.65% # Class of committed instruction
system.cpu0.commit.op_class_0::SimdShaSigma3            0      0.00%     57.65% # Class of committed instruction
system.cpu0.commit.op_class_0::SimdPredAlu            0      0.00%     57.65% # Class of committed instruction
system.cpu0.commit.op_class_0::MemRead      407271770     30.89%     88.53% # Class of committed instruction
system.cpu0.commit.op_class_0::MemWrite     151184370     11.47%    100.00% # Class of committed instruction
system.cpu0.commit.op_class_0::FloatMemRead            8      0.00%    100.00% # Class of committed instruction
system.cpu0.commit.op_class_0::FloatMemWrite           20      0.00%    100.00% # Class of committed instruction
system.cpu0.commit.op_class_0::IprAccess            0      0.00%    100.00% # Class of committed instruction
system.cpu0.commit.op_class_0::InstPrefetch            0      0.00%    100.00% # Class of committed instruction
system.cpu0.commit.op_class_0::total       1318656079                       # Class of committed instruction
system.cpu0.commit.refs                     558456168                       # Number of memory references committed
system.cpu0.commit.swp_count                        0                       # Number of s/w prefetches committed
system.cpu0.commit.vec_insts                        0                       # Number of committed Vector instructions.
system.cpu0.committedInsts                 1316552504                       # Number of Instructions Simulated
system.cpu0.committedOps                   1318656079                       # Number of Ops (including micro ops) Simulated
system.cpu0.cpi                              2.005397                       # CPI: Cycles Per Instruction
system.cpu0.cpi_total                        2.005397                       # CPI: Total CPI of All Threads
system.cpu0.decode.BlockedCycles            459496533                       # Number of cycles decode is blocked
system.cpu0.decode.BranchMispred              6252056                       # Number of times decode detected a branch misprediction
system.cpu0.decode.BranchResolved           181121855                       # Number of times decode resolved a branch
system.cpu0.decode.DecodedInsts            1482228301                       # Number of instructions handled by decode
system.cpu0.decode.IdleCycles               982917431                       # Number of cycles decode is idle
system.cpu0.decode.RunCycles               1002675958                       # Number of cycles decode is running
system.cpu0.decode.SquashCycles              10600566                       # Number of cycles decode is squashing
system.cpu0.decode.SquashedInsts             14075133                       # Number of squashed instructions handled by decode
system.cpu0.decode.UnblockCycles              6738756                       # Number of cycles decode is unblocking
system.cpu0.dtb.accesses                            0                       # DTB accesses
system.cpu0.dtb.hits                                0                       # DTB hits
system.cpu0.dtb.misses                              0                       # DTB misses
system.cpu0.dtb.read_accesses                       0                       # DTB read accesses
system.cpu0.dtb.read_hits                           0                       # DTB read hits
system.cpu0.dtb.read_misses                         0                       # DTB read misses
system.cpu0.dtb.write_accesses                      0                       # DTB write accesses
system.cpu0.dtb.write_hits                          0                       # DTB write hits
system.cpu0.dtb.write_misses                        0                       # DTB write misses
system.cpu0.fetch.Branches                  363990492                       # Number of branches that fetch encountered
system.cpu0.fetch.CacheLines                267260360                       # Number of cache lines fetched
system.cpu0.fetch.Cycles                   1481095476                       # Number of cycles fetch has run and was not squashing or blocked
system.cpu0.fetch.IcacheSquashes              4185310                       # Number of outstanding Icache misses that were squashed
system.cpu0.fetch.IcacheWaitRetryStallCycles          113                       # Number of stall cycles due to full MSHR
system.cpu0.fetch.Insts                    1524952666                       # Number of instructions fetch has processed
system.cpu0.fetch.MiscStallCycles                  10                       # Number of cycles fetch has spent waiting on interrupts, or bad addresses, or out of MSHRs
system.cpu0.fetch.SquashCycles               33584960                       # Number of cycles fetch has spent squashing
system.cpu0.fetch.branchRate                 0.137864                       # Number of branch fetches per cycle
system.cpu0.fetch.icacheStallCycles         964541165                       # Number of cycles fetch is stalled on an Icache miss
system.cpu0.fetch.predictedBranches         207185276                       # Number of branches that fetch has predicted taken
system.cpu0.fetch.rate                       0.577588                       # Number of inst fetches per cycle
system.cpu0.fetch.rateDist::samples        2462429244                       # Number of instructions fetched each cycle (Total)
system.cpu0.fetch.rateDist::mean             0.622118                       # Number of instructions fetched each cycle (Total)
system.cpu0.fetch.rateDist::stdev            0.914800                       # Number of instructions fetched each cycle (Total)
system.cpu0.fetch.rateDist::underflows              0      0.00%      0.00% # Number of instructions fetched each cycle (Total)
system.cpu0.fetch.rateDist::0              1401466312     56.91%     56.91% # Number of instructions fetched each cycle (Total)
system.cpu0.fetch.rateDist::1               775912528     31.51%     88.42% # Number of instructions fetched each cycle (Total)
system.cpu0.fetch.rateDist::2               147510733      5.99%     94.41% # Number of instructions fetched each cycle (Total)
system.cpu0.fetch.rateDist::3               111083997      4.51%     98.93% # Number of instructions fetched each cycle (Total)
system.cpu0.fetch.rateDist::4                14090608      0.57%     99.50% # Number of instructions fetched each cycle (Total)
system.cpu0.fetch.rateDist::5                 7028792      0.29%     99.78% # Number of instructions fetched each cycle (Total)
system.cpu0.fetch.rateDist::6                 1128885      0.05%     99.83% # Number of instructions fetched each cycle (Total)
system.cpu0.fetch.rateDist::7                 4203470      0.17%    100.00% # Number of instructions fetched each cycle (Total)
system.cpu0.fetch.rateDist::8                    3919      0.00%    100.00% # Number of instructions fetched each cycle (Total)
system.cpu0.fetch.rateDist::overflows               0      0.00%    100.00% # Number of instructions fetched each cycle (Total)
system.cpu0.fetch.rateDist::min_value               0                       # Number of instructions fetched each cycle (Total)
system.cpu0.fetch.rateDist::max_value               8                       # Number of instructions fetched each cycle (Total)
system.cpu0.fetch.rateDist::total          2462429244                       # Number of instructions fetched each cycle (Total)
system.cpu0.fp_regfile_reads                       44                       # number of floating regfile reads
system.cpu0.fp_regfile_writes                      22                       # number of floating regfile writes
system.cpu0.idleCycles                      177780650                       # Total number of cycles that the CPU has spent unscheduled due to idling
system.cpu0.iew.branchMispredicts            10711606                       # Number of branch mispredicts detected at execute
system.cpu0.iew.exec_branches               343059767                       # Number of branches executed
system.cpu0.iew.exec_nop                            0                       # number of nop insts executed
system.cpu0.iew.exec_rate                    0.528862                       # Inst execution rate
system.cpu0.iew.exec_refs                   597037807                       # number of memory reference insts executed
system.cpu0.iew.exec_stores                 162856013                       # Number of stores executed
system.cpu0.iew.exec_swp                            0                       # number of swp insts executed
system.cpu0.iew.iewBlockCycles              353302870                       # Number of cycles IEW is blocking
system.cpu0.iew.iewDispLoadInsts            449376515                       # Number of dispatched load instructions
system.cpu0.iew.iewDispNonSpecInsts           4758167                       # Number of dispatched non-speculative instructions
system.cpu0.iew.iewDispSquashedInsts          3089869                       # Number of squashed instructions skipped by dispatch
system.cpu0.iew.iewDispStoreInsts           171430512                       # Number of dispatched store instructions
system.cpu0.iew.iewDispatchedInsts         1451230056                       # Number of instructions dispatched to IQ
system.cpu0.iew.iewExecLoadInsts            434181794                       # Number of load instructions executed
system.cpu0.iew.iewExecSquashedInsts          9887504                       # Number of squashed instructions skipped in execute
system.cpu0.iew.iewExecutedInsts           1396306956                       # Number of executed instructions
system.cpu0.iew.iewIQFullEvents               1852653                       # Number of times the IQ has become full, causing a stall
system.cpu0.iew.iewIdleCycles                       0                       # Number of cycles IEW is idle
system.cpu0.iew.iewLSQFullEvents             17240840                       # Number of times the LSQ has become full, causing a stall
system.cpu0.iew.iewSquashCycles              10600566                       # Number of cycles IEW is squashing
system.cpu0.iew.iewUnblockCycles             21329270                       # Number of cycles IEW is unblocking
system.cpu0.iew.lsq.thread0.blockedLoads            0                       # Number of blocked loads due to partial load-store forwarding
system.cpu0.iew.lsq.thread0.cacheBlocked       230878                       # Number of times an access to memory failed due to the cache being blocked
system.cpu0.iew.lsq.thread0.forwLoads        22339474                       # Number of loads that had data forwarded from stores
system.cpu0.iew.lsq.thread0.ignoredResponses        31816                       # Number of memory responses ignored because the instruction is squashed
system.cpu0.iew.lsq.thread0.invAddrLoads            0                       # Number of loads ignored due to an invalid address
system.cpu0.iew.lsq.thread0.invAddrSwpfs            0                       # Number of software prefetches ignored due to an invalid address
system.cpu0.iew.lsq.thread0.memOrderViolation        14773                       # Number of memory ordering violations
system.cpu0.iew.lsq.thread0.rescheduledLoads      5139480                       # Number of loads that were rescheduled
system.cpu0.iew.lsq.thread0.squashedLoads     44205005                       # Number of loads squashed
system.cpu0.iew.lsq.thread0.squashedStores     18145854                       # Number of stores squashed
system.cpu0.iew.memOrderViolationEvents         14773                       # Number of memory order violations
system.cpu0.iew.predictedNotTakenIncorrect      1296176                       # Number of branches that were predicted not taken incorrectly
system.cpu0.iew.predictedTakenIncorrect       9415430                       # Number of branches that were predicted taken incorrectly
system.cpu0.iew.wb_consumers                591143362                       # num instructions consuming a value
system.cpu0.iew.wb_count                   1384619392                       # cumulative count of insts written-back
system.cpu0.iew.wb_fanout                    0.896354                       # average fanout of values written-back
system.cpu0.iew.wb_producers                529873440                       # num instructions producing a value
system.cpu0.iew.wb_rate                      0.524435                       # insts written-back per cycle
system.cpu0.iew.wb_sent                    1384765219                       # cumulative count of insts sent to commit
system.cpu0.int_regfile_reads              1716880907                       # number of integer regfile reads
system.cpu0.int_regfile_writes              889392110                       # number of integer regfile writes
system.cpu0.ipc                              0.498654                       # IPC: Instructions Per Cycle
system.cpu0.ipc_total                        0.498654                       # IPC: Total IPC of All Threads
system.cpu0.iq.FU_type_0::No_OpClass          4205639      0.30%      0.30% # Type of FU issued
system.cpu0.iq.FU_type_0::IntAlu            786858044     55.96%     56.26% # Type of FU issued
system.cpu0.iq.FU_type_0::IntMult            11834122      0.84%     57.10% # Type of FU issued
system.cpu0.iq.FU_type_0::IntDiv              2100453      0.15%     57.25% # Type of FU issued
system.cpu0.iq.FU_type_0::FloatAdd                  0      0.00%     57.25% # Type of FU issued
system.cpu0.iq.FU_type_0::FloatCmp                  4      0.00%     57.25% # Type of FU issued
system.cpu0.iq.FU_type_0::FloatCvt                 12      0.00%     57.25% # Type of FU issued
system.cpu0.iq.FU_type_0::FloatMult                 0      0.00%     57.25% # Type of FU issued
system.cpu0.iq.FU_type_0::FloatMultAcc              0      0.00%     57.25% # Type of FU issued
system.cpu0.iq.FU_type_0::FloatDiv                  2      0.00%     57.25% # Type of FU issued
system.cpu0.iq.FU_type_0::FloatMisc                 4      0.00%     57.25% # Type of FU issued
system.cpu0.iq.FU_type_0::FloatSqrt                 0      0.00%     57.25% # Type of FU issued
system.cpu0.iq.FU_type_0::SimdAdd                   0      0.00%     57.25% # Type of FU issued
system.cpu0.iq.FU_type_0::SimdAddAcc                0      0.00%     57.25% # Type of FU issued
system.cpu0.iq.FU_type_0::SimdAlu                   0      0.00%     57.25% # Type of FU issued
system.cpu0.iq.FU_type_0::SimdCmp                   0      0.00%     57.25% # Type of FU issued
system.cpu0.iq.FU_type_0::SimdCvt                   0      0.00%     57.25% # Type of FU issued
system.cpu0.iq.FU_type_0::SimdMisc                  0      0.00%     57.25% # Type of FU issued
system.cpu0.iq.FU_type_0::SimdMult                  0      0.00%     57.25% # Type of FU issued
system.cpu0.iq.FU_type_0::SimdMultAcc               0      0.00%     57.25% # Type of FU issued
system.cpu0.iq.FU_type_0::SimdShift                 0      0.00%     57.25% # Type of FU issued
system.cpu0.iq.FU_type_0::SimdShiftAcc              0      0.00%     57.25% # Type of FU issued
system.cpu0.iq.FU_type_0::SimdDiv                   0      0.00%     57.25% # Type of FU issued
system.cpu0.iq.FU_type_0::SimdSqrt                  0      0.00%     57.25% # Type of FU issued
system.cpu0.iq.FU_type_0::SimdFloatAdd              0      0.00%     57.25% # Type of FU issued
system.cpu0.iq.FU_type_0::SimdFloatAlu              0      0.00%     57.25% # Type of FU issued
system.cpu0.iq.FU_type_0::SimdFloatCmp              0      0.00%     57.25% # Type of FU issued
system.cpu0.iq.FU_type_0::SimdFloatCvt              0      0.00%     57.25% # Type of FU issued
system.cpu0.iq.FU_type_0::SimdFloatDiv              0      0.00%     57.25% # Type of FU issued
system.cpu0.iq.FU_type_0::SimdFloatMisc             0      0.00%     57.25% # Type of FU issued
system.cpu0.iq.FU_type_0::SimdFloatMult             0      0.00%     57.25% # Type of FU issued
system.cpu0.iq.FU_type_0::SimdFloatMultAcc            0      0.00%     57.25% # Type of FU issued
system.cpu0.iq.FU_type_0::SimdFloatSqrt             0      0.00%     57.25% # Type of FU issued
system.cpu0.iq.FU_type_0::SimdReduceAdd             0      0.00%     57.25% # Type of FU issued
system.cpu0.iq.FU_type_0::SimdReduceAlu             0      0.00%     57.25% # Type of FU issued
system.cpu0.iq.FU_type_0::SimdReduceCmp             0      0.00%     57.25% # Type of FU issued
system.cpu0.iq.FU_type_0::SimdFloatReduceAdd            0      0.00%     57.25% # Type of FU issued
system.cpu0.iq.FU_type_0::SimdFloatReduceCmp            0      0.00%     57.25% # Type of FU issued
system.cpu0.iq.FU_type_0::SimdAes                   0      0.00%     57.25% # Type of FU issued
system.cpu0.iq.FU_type_0::SimdAesMix                0      0.00%     57.25% # Type of FU issued
system.cpu0.iq.FU_type_0::SimdSha1Hash              0      0.00%     57.25% # Type of FU issued
system.cpu0.iq.FU_type_0::SimdSha1Hash2             0      0.00%     57.25% # Type of FU issued
system.cpu0.iq.FU_type_0::SimdSha256Hash            0      0.00%     57.25% # Type of FU issued
system.cpu0.iq.FU_type_0::SimdSha256Hash2            0      0.00%     57.25% # Type of FU issued
system.cpu0.iq.FU_type_0::SimdShaSigma2             0      0.00%     57.25% # Type of FU issued
system.cpu0.iq.FU_type_0::SimdShaSigma3             0      0.00%     57.25% # Type of FU issued
system.cpu0.iq.FU_type_0::SimdPredAlu               0      0.00%     57.25% # Type of FU issued
system.cpu0.iq.FU_type_0::MemRead           438812825     31.21%     88.45% # Type of FU issued
system.cpu0.iq.FU_type_0::MemWrite          162383328     11.55%    100.00% # Type of FU issued
system.cpu0.iq.FU_type_0::FloatMemRead              8      0.00%    100.00% # Type of FU issued
system.cpu0.iq.FU_type_0::FloatMemWrite            20      0.00%    100.00% # Type of FU issued
system.cpu0.iq.FU_type_0::IprAccess                 0      0.00%    100.00% # Type of FU issued
system.cpu0.iq.FU_type_0::InstPrefetch              0      0.00%    100.00% # Type of FU issued
system.cpu0.iq.FU_type_0::total            1406194461                       # Type of FU issued
system.cpu0.iq.fp_alu_accesses                     52                       # Number of floating point alu accesses
system.cpu0.iq.fp_inst_queue_reads                102                       # Number of floating instruction queue reads
system.cpu0.iq.fp_inst_queue_wakeup_accesses           50                       # Number of floating instruction queue wakeup accesses
system.cpu0.iq.fp_inst_queue_writes                52                       # Number of floating instruction queue writes
system.cpu0.iq.fu_busy_cnt                    3317238                       # FU busy when requested
system.cpu0.iq.fu_busy_rate                  0.002359                       # FU busy rate (busy events/executed inst)
system.cpu0.iq.fu_full::No_OpClass                  0      0.00%      0.00% # attempts to use FU when none available
system.cpu0.iq.fu_full::IntAlu                 576737     17.39%     17.39% # attempts to use FU when none available
system.cpu0.iq.fu_full::IntMult                     0      0.00%     17.39% # attempts to use FU when none available
system.cpu0.iq.fu_full::IntDiv                      0      0.00%     17.39% # attempts to use FU when none available
system.cpu0.iq.fu_full::FloatAdd                    0      0.00%     17.39% # attempts to use FU when none available
system.cpu0.iq.fu_full::FloatCmp                    0      0.00%     17.39% # attempts to use FU when none available
system.cpu0.iq.fu_full::FloatCvt                    0      0.00%     17.39% # attempts to use FU when none available
system.cpu0.iq.fu_full::FloatMult                   0      0.00%     17.39% # attempts to use FU when none available
system.cpu0.iq.fu_full::FloatMultAcc                0      0.00%     17.39% # attempts to use FU when none available
system.cpu0.iq.fu_full::FloatDiv                    0      0.00%     17.39% # attempts to use FU when none available
system.cpu0.iq.fu_full::FloatMisc                   0      0.00%     17.39% # attempts to use FU when none available
system.cpu0.iq.fu_full::FloatSqrt                   0      0.00%     17.39% # attempts to use FU when none available
system.cpu0.iq.fu_full::SimdAdd                     0      0.00%     17.39% # attempts to use FU when none available
system.cpu0.iq.fu_full::SimdAddAcc                  0      0.00%     17.39% # attempts to use FU when none available
system.cpu0.iq.fu_full::SimdAlu                     0      0.00%     17.39% # attempts to use FU when none available
system.cpu0.iq.fu_full::SimdCmp                     0      0.00%     17.39% # attempts to use FU when none available
system.cpu0.iq.fu_full::SimdCvt                     0      0.00%     17.39% # attempts to use FU when none available
system.cpu0.iq.fu_full::SimdMisc                    0      0.00%     17.39% # attempts to use FU when none available
system.cpu0.iq.fu_full::SimdMult                    0      0.00%     17.39% # attempts to use FU when none available
system.cpu0.iq.fu_full::SimdMultAcc                 0      0.00%     17.39% # attempts to use FU when none available
system.cpu0.iq.fu_full::SimdShift                   0      0.00%     17.39% # attempts to use FU when none available
system.cpu0.iq.fu_full::SimdShiftAcc                0      0.00%     17.39% # attempts to use FU when none available
system.cpu0.iq.fu_full::SimdDiv                     0      0.00%     17.39% # attempts to use FU when none available
system.cpu0.iq.fu_full::SimdSqrt                    0      0.00%     17.39% # attempts to use FU when none available
system.cpu0.iq.fu_full::SimdFloatAdd                0      0.00%     17.39% # attempts to use FU when none available
system.cpu0.iq.fu_full::SimdFloatAlu                0      0.00%     17.39% # attempts to use FU when none available
system.cpu0.iq.fu_full::SimdFloatCmp                0      0.00%     17.39% # attempts to use FU when none available
system.cpu0.iq.fu_full::SimdFloatCvt                0      0.00%     17.39% # attempts to use FU when none available
system.cpu0.iq.fu_full::SimdFloatDiv                0      0.00%     17.39% # attempts to use FU when none available
system.cpu0.iq.fu_full::SimdFloatMisc               0      0.00%     17.39% # attempts to use FU when none available
system.cpu0.iq.fu_full::SimdFloatMult               0      0.00%     17.39% # attempts to use FU when none available
system.cpu0.iq.fu_full::SimdFloatMultAcc            0      0.00%     17.39% # attempts to use FU when none available
system.cpu0.iq.fu_full::SimdFloatSqrt               0      0.00%     17.39% # attempts to use FU when none available
system.cpu0.iq.fu_full::SimdReduceAdd               0      0.00%     17.39% # attempts to use FU when none available
system.cpu0.iq.fu_full::SimdReduceAlu               0      0.00%     17.39% # attempts to use FU when none available
system.cpu0.iq.fu_full::SimdReduceCmp               0      0.00%     17.39% # attempts to use FU when none available
system.cpu0.iq.fu_full::SimdFloatReduceAdd            0      0.00%     17.39% # attempts to use FU when none available
system.cpu0.iq.fu_full::SimdFloatReduceCmp            0      0.00%     17.39% # attempts to use FU when none available
system.cpu0.iq.fu_full::SimdAes                     0      0.00%     17.39% # attempts to use FU when none available
system.cpu0.iq.fu_full::SimdAesMix                  0      0.00%     17.39% # attempts to use FU when none available
system.cpu0.iq.fu_full::SimdSha1Hash                0      0.00%     17.39% # attempts to use FU when none available
system.cpu0.iq.fu_full::SimdSha1Hash2               0      0.00%     17.39% # attempts to use FU when none available
system.cpu0.iq.fu_full::SimdSha256Hash              0      0.00%     17.39% # attempts to use FU when none available
system.cpu0.iq.fu_full::SimdSha256Hash2             0      0.00%     17.39% # attempts to use FU when none available
system.cpu0.iq.fu_full::SimdShaSigma2               0      0.00%     17.39% # attempts to use FU when none available
system.cpu0.iq.fu_full::SimdShaSigma3               0      0.00%     17.39% # attempts to use FU when none available
system.cpu0.iq.fu_full::SimdPredAlu                 0      0.00%     17.39% # attempts to use FU when none available
system.cpu0.iq.fu_full::MemRead               2293468     69.14%     86.52% # attempts to use FU when none available
system.cpu0.iq.fu_full::MemWrite               447031     13.48%    100.00% # attempts to use FU when none available
system.cpu0.iq.fu_full::FloatMemRead                0      0.00%    100.00% # attempts to use FU when none available
system.cpu0.iq.fu_full::FloatMemWrite               2      0.00%    100.00% # attempts to use FU when none available
system.cpu0.iq.fu_full::IprAccess                   0      0.00%    100.00% # attempts to use FU when none available
system.cpu0.iq.fu_full::InstPrefetch                0      0.00%    100.00% # attempts to use FU when none available
system.cpu0.iq.int_alu_accesses            1405306008                       # Number of integer alu accesses
system.cpu0.iq.int_inst_queue_reads        5278390776                       # Number of integer instruction queue reads
system.cpu0.iq.int_inst_queue_wakeup_accesses   1384619342                       # Number of integer instruction queue wakeup accesses
system.cpu0.iq.int_inst_queue_writes       1583817872                       # Number of integer instruction queue writes
system.cpu0.iq.iqInstsAdded                1436932621                       # Number of instructions added to the IQ (excludes non-spec)
system.cpu0.iq.iqInstsIssued               1406194461                       # Number of instructions issued
system.cpu0.iq.iqNonSpecInstsAdded           14297435                       # Number of non-speculative instructions added to the IQ
system.cpu0.iq.iqSquashedInstsExamined      132573973                       # Number of squashed instructions iterated over during squash; mainly for profiling
system.cpu0.iq.iqSquashedInstsIssued           255475                       # Number of squashed instructions issued
system.cpu0.iq.iqSquashedNonSpecRemoved       7987697                       # Number of squashed non-spec instructions that were removed
system.cpu0.iq.iqSquashedOperandsExamined     67583047                       # Number of squashed operands that are examined and possibly removed from graph
system.cpu0.iq.issued_per_cycle::samples   2462429244                       # Number of insts issued each cycle
system.cpu0.iq.issued_per_cycle::mean        0.571060                       # Number of insts issued each cycle
system.cpu0.iq.issued_per_cycle::stdev       0.811975                       # Number of insts issued each cycle
system.cpu0.iq.issued_per_cycle::underflows            0      0.00%      0.00% # Number of insts issued each cycle
system.cpu0.iq.issued_per_cycle::0         1439561103     58.46%     58.46% # Number of insts issued each cycle
system.cpu0.iq.issued_per_cycle::1          727569586     29.55%     88.01% # Number of insts issued each cycle
system.cpu0.iq.issued_per_cycle::2          232055025      9.42%     97.43% # Number of insts issued each cycle
system.cpu0.iq.issued_per_cycle::3           46814395      1.90%     99.33% # Number of insts issued each cycle
system.cpu0.iq.issued_per_cycle::4           12053064      0.49%     99.82% # Number of insts issued each cycle
system.cpu0.iq.issued_per_cycle::5            1723367      0.07%     99.89% # Number of insts issued each cycle
system.cpu0.iq.issued_per_cycle::6            1684994      0.07%     99.96% # Number of insts issued each cycle
system.cpu0.iq.issued_per_cycle::7             609095      0.02%     99.99% # Number of insts issued each cycle
system.cpu0.iq.issued_per_cycle::8             358615      0.01%    100.00% # Number of insts issued each cycle
system.cpu0.iq.issued_per_cycle::overflows            0      0.00%    100.00% # Number of insts issued each cycle
system.cpu0.iq.issued_per_cycle::min_value            0                       # Number of insts issued each cycle
system.cpu0.iq.issued_per_cycle::max_value            8                       # Number of insts issued each cycle
system.cpu0.iq.issued_per_cycle::total     2462429244                       # Number of insts issued each cycle
system.cpu0.iq.rate                          0.532607                       # Inst issue rate
system.cpu0.iq.vec_alu_accesses                     0                       # Number of vector alu accesses
system.cpu0.iq.vec_inst_queue_reads                 0                       # Number of vector instruction queue reads
system.cpu0.iq.vec_inst_queue_wakeup_accesses            0                       # Number of vector instruction queue wakeup accesses
system.cpu0.iq.vec_inst_queue_writes                0                       # Number of vector instruction queue writes
system.cpu0.itb.accesses                            0                       # DTB accesses
system.cpu0.itb.hits                                0                       # DTB hits
system.cpu0.itb.misses                              0                       # DTB misses
system.cpu0.itb.read_accesses                       0                       # DTB read accesses
system.cpu0.itb.read_hits                           0                       # DTB read hits
system.cpu0.itb.read_misses                         0                       # DTB read misses
system.cpu0.itb.write_accesses                      0                       # DTB write accesses
system.cpu0.itb.write_hits                          0                       # DTB write hits
system.cpu0.itb.write_misses                        0                       # DTB write misses
system.cpu0.memDep0.conflictingLoads         33923954                       # Number of conflicting loads.
system.cpu0.memDep0.conflictingStores         5096893                       # Number of conflicting stores.
system.cpu0.memDep0.insertedLoads           449376515                       # Number of loads inserted to the mem dependence unit.
system.cpu0.memDep0.insertedStores          171430512                       # Number of stores inserted to the mem dependence unit.
system.cpu0.misc_regfile_reads                   1893                       # number of misc regfile reads
system.cpu0.misc_regfile_writes                    22                       # number of misc regfile writes
system.cpu0.numCycles                      2640209894                       # number of cpu cycles simulated
system.cpu0.numWorkItemsCompleted                   0                       # number of work items this cpu completed
system.cpu0.numWorkItemsStarted                     0                       # number of work items this cpu started
system.cpu0.quiesceCycles                     7081809                       # Total number of cycles that CPU has spent quiesced or waiting for an interrupt
system.cpu0.rename.BlockCycles              387916670                       # Number of cycles rename is blocking
system.cpu0.rename.CommittedMaps            845198779                       # Number of HB maps that are committed
system.cpu0.rename.IQFullEvents              10493857                       # Number of times rename has blocked due to IQ full
system.cpu0.rename.IdleCycles               997520455                       # Number of cycles rename is idle
system.cpu0.rename.LQFullEvents              28945347                       # Number of times rename has blocked due to LQ full
system.cpu0.rename.ROBFullEvents                45078                       # Number of times rename has blocked due to ROB full
system.cpu0.rename.RenameLookups           1799115887                       # Number of register rename lookups that rename has made
system.cpu0.rename.RenamedInsts            1464108951                       # Number of instructions processed by rename
system.cpu0.rename.RenamedOperands          947689449                       # Number of destination operands rename has renamed
system.cpu0.rename.RunCycles                992618865                       # Number of cycles rename is running
system.cpu0.rename.SQFullEvents              32677812                       # Number of times rename has blocked due to SQ full
system.cpu0.rename.SquashCycles              10600566                       # Number of cycles rename is squashing
system.cpu0.rename.UnblockCycles             73618436                       # Number of cycles rename is unblocking
system.cpu0.rename.UndoneMaps               102490665                       # Number of HB maps that are undone due to squashing
system.cpu0.rename.fp_rename_lookups               45                       # Number of floating rename lookups
system.cpu0.rename.int_rename_lookups      1799115842                       # Number of integer rename lookups
system.cpu0.rename.serializeStallCycles        154252                       # count of cycles rename stalled for serializing inst
system.cpu0.rename.serializingInsts              5880                       # count of serializing insts renamed
system.cpu0.rename.skidInsts                 26412435                       # count of insts added to the skid buffer
system.cpu0.rename.tempSerializingInsts          5831                       # count of temporary serializing insts renamed
system.cpu0.rob.rob_reads                  3853636915                       # The number of ROB reads
system.cpu0.rob.rob_writes                 2926401702                       # The number of ROB writes
system.cpu0.timesIdled                       31099039                       # Number of times that the entire CPU went into an idle state and unscheduled itself
system.cpu0.workload.numSyscalls                 1860                       # Number of system calls
system.cpu1.branchPred.BTBCorrect                   0                       # Number of correct BTB predictions (this stat may not work properly.
system.cpu1.branchPred.BTBHitPct            90.497466                       # BTB Hit Percentage
system.cpu1.branchPred.BTBHits               21245329                       # Number of BTB hits
system.cpu1.branchPred.BTBLookups            23476159                       # Number of BTB lookups
system.cpu1.branchPred.RASInCorrect                 0                       # Number of incorrect RAS predictions.
system.cpu1.branchPred.condIncorrect          2836904                       # Number of conditional branches incorrect
system.cpu1.branchPred.condPredicted         31343975                       # Number of conditional branches predicted
system.cpu1.branchPred.indirectHits           1096172                       # Number of indirect target hits.
system.cpu1.branchPred.indirectLookups        1123109                       # Number of indirect predictor lookups.
system.cpu1.branchPred.indirectMisses           26937                       # Number of indirect misses.
system.cpu1.branchPred.lookups               36162864                       # Number of BP lookups
system.cpu1.branchPred.usedRAS                      0                       # Number of times the RAS was used to get a target.
system.cpu1.branchPredindirectMispredicted        48375                       # Number of mispredicted indirect branches.
system.cpu1.commit.amos                       2099997                       # Number of atomic instructions committed
system.cpu1.commit.branchMispredicts          2014981                       # The number of times a branch was mispredicted
system.cpu1.commit.branches                  28120819                       # Number of branches committed
system.cpu1.commit.bw_lim_events              4213021                       # number cycles where commit BW limit reached
system.cpu1.commit.commitNonSpecStalls        6300669                       # The number of times commit has been forced to stall to communicate backwards
system.cpu1.commit.commitSquashedInsts       19014551                       # The number of squashed insts skipped by commit
system.cpu1.commit.committedInsts           120073646                       # Number of instructions committed
system.cpu1.commit.committedOps             122173823                       # Number of ops (including micro ops) committed
system.cpu1.commit.committed_per_cycle::samples    507279390                       # Number of insts commited each cycle
system.cpu1.commit.committed_per_cycle::mean     0.240841                       # Number of insts commited each cycle
system.cpu1.commit.committed_per_cycle::stdev     0.994886                       # Number of insts commited each cycle
system.cpu1.commit.committed_per_cycle::underflows            0      0.00%      0.00% # Number of insts commited each cycle
system.cpu1.commit.committed_per_cycle::0    458057933     90.30%     90.30% # Number of insts commited each cycle
system.cpu1.commit.committed_per_cycle::1     24342304      4.80%     95.10% # Number of insts commited each cycle
system.cpu1.commit.committed_per_cycle::2      8869761      1.75%     96.84% # Number of insts commited each cycle
system.cpu1.commit.committed_per_cycle::3      6954856      1.37%     98.22% # Number of insts commited each cycle
system.cpu1.commit.committed_per_cycle::4      1586401      0.31%     98.53% # Number of insts commited each cycle
system.cpu1.commit.committed_per_cycle::5       751509      0.15%     98.68% # Number of insts commited each cycle
system.cpu1.commit.committed_per_cycle::6      2105123      0.41%     99.09% # Number of insts commited each cycle
system.cpu1.commit.committed_per_cycle::7       398482      0.08%     99.17% # Number of insts commited each cycle
system.cpu1.commit.committed_per_cycle::8      4213021      0.83%    100.00% # Number of insts commited each cycle
system.cpu1.commit.committed_per_cycle::overflows            0      0.00%    100.00% # Number of insts commited each cycle
system.cpu1.commit.committed_per_cycle::min_value            0                       # Number of insts commited each cycle
system.cpu1.commit.committed_per_cycle::max_value            8                       # Number of insts commited each cycle
system.cpu1.commit.committed_per_cycle::total    507279390                       # Number of insts commited each cycle
system.cpu1.commit.fp_insts                        12                       # Number of committed floating point instructions.
system.cpu1.commit.function_calls             1798189                       # Number of function calls committed.
system.cpu1.commit.int_insts                116610835                       # Number of committed integer instructions.
system.cpu1.commit.loads                     30177239                       # Number of loads committed
system.cpu1.commit.membars                    4200121                       # Number of memory barriers committed
system.cpu1.commit.op_class_0::No_OpClass      4200121      3.44%      3.44% # Class of committed instruction
system.cpu1.commit.op_class_0::IntAlu        76673317     62.76%     66.20% # Class of committed instruction
system.cpu1.commit.op_class_0::IntMult             44      0.00%     66.20% # Class of committed instruction
system.cpu1.commit.op_class_0::IntDiv              88      0.00%     66.20% # Class of committed instruction
system.cpu1.commit.op_class_0::FloatAdd             0      0.00%     66.20% # Class of committed instruction
system.cpu1.commit.op_class_0::FloatCmp             0      0.00%     66.20% # Class of committed instruction
system.cpu1.commit.op_class_0::FloatCvt             0      0.00%     66.20% # Class of committed instruction
system.cpu1.commit.op_class_0::FloatMult            0      0.00%     66.20% # Class of committed instruction
system.cpu1.commit.op_class_0::FloatMultAcc            0      0.00%     66.20% # Class of committed instruction
system.cpu1.commit.op_class_0::FloatDiv             0      0.00%     66.20% # Class of committed instruction
system.cpu1.commit.op_class_0::FloatMisc            0      0.00%     66.20% # Class of committed instruction
system.cpu1.commit.op_class_0::FloatSqrt            0      0.00%     66.20% # Class of committed instruction
system.cpu1.commit.op_class_0::SimdAdd              0      0.00%     66.20% # Class of committed instruction
system.cpu1.commit.op_class_0::SimdAddAcc            0      0.00%     66.20% # Class of committed instruction
system.cpu1.commit.op_class_0::SimdAlu              0      0.00%     66.20% # Class of committed instruction
system.cpu1.commit.op_class_0::SimdCmp              0      0.00%     66.20% # Class of committed instruction
system.cpu1.commit.op_class_0::SimdCvt              0      0.00%     66.20% # Class of committed instruction
system.cpu1.commit.op_class_0::SimdMisc             0      0.00%     66.20% # Class of committed instruction
system.cpu1.commit.op_class_0::SimdMult             0      0.00%     66.20% # Class of committed instruction
system.cpu1.commit.op_class_0::SimdMultAcc            0      0.00%     66.20% # Class of committed instruction
system.cpu1.commit.op_class_0::SimdShift            0      0.00%     66.20% # Class of committed instruction
system.cpu1.commit.op_class_0::SimdShiftAcc            0      0.00%     66.20% # Class of committed instruction
system.cpu1.commit.op_class_0::SimdDiv              0      0.00%     66.20% # Class of committed instruction
system.cpu1.commit.op_class_0::SimdSqrt             0      0.00%     66.20% # Class of committed instruction
system.cpu1.commit.op_class_0::SimdFloatAdd            0      0.00%     66.20% # Class of committed instruction
system.cpu1.commit.op_class_0::SimdFloatAlu            0      0.00%     66.20% # Class of committed instruction
system.cpu1.commit.op_class_0::SimdFloatCmp            0      0.00%     66.20% # Class of committed instruction
system.cpu1.commit.op_class_0::SimdFloatCvt            0      0.00%     66.20% # Class of committed instruction
system.cpu1.commit.op_class_0::SimdFloatDiv            0      0.00%     66.20% # Class of committed instruction
system.cpu1.commit.op_class_0::SimdFloatMisc            0      0.00%     66.20% # Class of committed instruction
system.cpu1.commit.op_class_0::SimdFloatMult            0      0.00%     66.20% # Class of committed instruction
system.cpu1.commit.op_class_0::SimdFloatMultAcc            0      0.00%     66.20% # Class of committed instruction
system.cpu1.commit.op_class_0::SimdFloatSqrt            0      0.00%     66.20% # Class of committed instruction
system.cpu1.commit.op_class_0::SimdReduceAdd            0      0.00%     66.20% # Class of committed instruction
system.cpu1.commit.op_class_0::SimdReduceAlu            0      0.00%     66.20% # Class of committed instruction
system.cpu1.commit.op_class_0::SimdReduceCmp            0      0.00%     66.20% # Class of committed instruction
system.cpu1.commit.op_class_0::SimdFloatReduceAdd            0      0.00%     66.20% # Class of committed instruction
system.cpu1.commit.op_class_0::SimdFloatReduceCmp            0      0.00%     66.20% # Class of committed instruction
system.cpu1.commit.op_class_0::SimdAes              0      0.00%     66.20% # Class of committed instruction
system.cpu1.commit.op_class_0::SimdAesMix            0      0.00%     66.20% # Class of committed instruction
system.cpu1.commit.op_class_0::SimdSha1Hash            0      0.00%     66.20% # Class of committed instruction
system.cpu1.commit.op_class_0::SimdSha1Hash2            0      0.00%     66.20% # Class of committed instruction
system.cpu1.commit.op_class_0::SimdSha256Hash            0      0.00%     66.20% # Class of committed instruction
system.cpu1.commit.op_class_0::SimdSha256Hash2            0      0.00%     66.20% # Class of committed instruction
system.cpu1.commit.op_class_0::SimdShaSigma2            0      0.00%     66.20% # Class of committed instruction
system.cpu1.commit.op_class_0::SimdShaSigma3            0      0.00%     66.20% # Class of committed instruction
system.cpu1.commit.op_class_0::SimdPredAlu            0      0.00%     66.20% # Class of committed instruction
system.cpu1.commit.op_class_0::MemRead       32277236     26.42%     92.61% # Class of committed instruction
system.cpu1.commit.op_class_0::MemWrite       9023005      7.39%    100.00% # Class of committed instruction
system.cpu1.commit.op_class_0::FloatMemRead            0      0.00%    100.00% # Class of committed instruction
system.cpu1.commit.op_class_0::FloatMemWrite           12      0.00%    100.00% # Class of committed instruction
system.cpu1.commit.op_class_0::IprAccess            0      0.00%    100.00% # Class of committed instruction
system.cpu1.commit.op_class_0::InstPrefetch            0      0.00%    100.00% # Class of committed instruction
system.cpu1.commit.op_class_0::total        122173823                       # Class of committed instruction
system.cpu1.commit.refs                      41300253                       # Number of memory references committed
system.cpu1.commit.swp_count                        0                       # Number of s/w prefetches committed
system.cpu1.commit.vec_insts                        0                       # Number of committed Vector instructions.
system.cpu1.committedInsts                  120073646                       # Number of Instructions Simulated
system.cpu1.committedOps                    122173823                       # Number of Ops (including micro ops) Simulated
system.cpu1.cpi                              4.263170                       # CPI: Cycles Per Instruction
system.cpu1.cpi_total                        4.263170                       # CPI: Total CPI of All Threads
system.cpu1.decode.BlockedCycles            410018267                       # Number of cycles decode is blocked
system.cpu1.decode.BranchMispred               872984                       # Number of times decode detected a branch misprediction
system.cpu1.decode.BranchResolved            20169626                       # Number of times decode resolved a branch
system.cpu1.decode.DecodedInsts             148002957                       # Number of instructions handled by decode
system.cpu1.decode.IdleCycles                27341194                       # Number of cycles decode is idle
system.cpu1.decode.RunCycles                 66296912                       # Number of cycles decode is running
system.cpu1.decode.SquashCycles               2016957                       # Number of cycles decode is squashing
system.cpu1.decode.SquashedInsts              2160770                       # Number of squashed instructions handled by decode
system.cpu1.decode.UnblockCycles              5363060                       # Number of cycles decode is unblocking
system.cpu1.dtb.accesses                            0                       # DTB accesses
system.cpu1.dtb.hits                                0                       # DTB hits
system.cpu1.dtb.misses                              0                       # DTB misses
system.cpu1.dtb.read_accesses                       0                       # DTB read accesses
system.cpu1.dtb.read_hits                           0                       # DTB read hits
system.cpu1.dtb.read_misses                         0                       # DTB read misses
system.cpu1.dtb.write_accesses                      0                       # DTB write accesses
system.cpu1.dtb.write_hits                          0                       # DTB write hits
system.cpu1.dtb.write_misses                        0                       # DTB write misses
system.cpu1.fetch.Branches                   36162864                       # Number of branches that fetch encountered
system.cpu1.fetch.CacheLines                 23959959                       # Number of cache lines fetched
system.cpu1.fetch.Cycles                    482265429                       # Number of cycles fetch has run and was not squashing or blocked
system.cpu1.fetch.IcacheSquashes               207194                       # Number of outstanding Icache misses that were squashed
system.cpu1.fetch.Insts                     154323533                       # Number of instructions fetch has processed
system.cpu1.fetch.MiscStallCycles                   1                       # Number of cycles fetch has spent waiting on interrupts, or bad addresses, or out of MSHRs
system.cpu1.fetch.SquashCycles                5677760                       # Number of cycles fetch has spent squashing
system.cpu1.fetch.branchRate                 0.070645                       # Number of branch fetches per cycle
system.cpu1.fetch.icacheStallCycles          25932080                       # Number of cycles fetch is stalled on an Icache miss
system.cpu1.fetch.predictedBranches          22341501                       # Number of branches that fetch has predicted taken
system.cpu1.fetch.rate                       0.301475                       # Number of inst fetches per cycle
system.cpu1.fetch.rateDist::samples         511036390                       # Number of instructions fetched each cycle (Total)
system.cpu1.fetch.rateDist::mean             0.306092                       # Number of instructions fetched each cycle (Total)
system.cpu1.fetch.rateDist::stdev            0.735256                       # Number of instructions fetched each cycle (Total)
system.cpu1.fetch.rateDist::underflows              0      0.00%      0.00% # Number of instructions fetched each cycle (Total)
system.cpu1.fetch.rateDist::0               411611778     80.54%     80.54% # Number of instructions fetched each cycle (Total)
system.cpu1.fetch.rateDist::1                63489408     12.42%     92.97% # Number of instructions fetched each cycle (Total)
system.cpu1.fetch.rateDist::2                19502102      3.82%     96.78% # Number of instructions fetched each cycle (Total)
system.cpu1.fetch.rateDist::3                12900195      2.52%     99.31% # Number of instructions fetched each cycle (Total)
system.cpu1.fetch.rateDist::4                 2501572      0.49%     99.80% # Number of instructions fetched each cycle (Total)
system.cpu1.fetch.rateDist::5                  966025      0.19%     99.99% # Number of instructions fetched each cycle (Total)
system.cpu1.fetch.rateDist::6                   64079      0.01%    100.00% # Number of instructions fetched each cycle (Total)
system.cpu1.fetch.rateDist::7                     943      0.00%    100.00% # Number of instructions fetched each cycle (Total)
system.cpu1.fetch.rateDist::8                     288      0.00%    100.00% # Number of instructions fetched each cycle (Total)
system.cpu1.fetch.rateDist::overflows               0      0.00%    100.00% # Number of instructions fetched each cycle (Total)
system.cpu1.fetch.rateDist::min_value               0                       # Number of instructions fetched each cycle (Total)
system.cpu1.fetch.rateDist::max_value               8                       # Number of instructions fetched each cycle (Total)
system.cpu1.fetch.rateDist::total           511036390                       # Number of instructions fetched each cycle (Total)
system.cpu1.fp_regfile_reads                       12                       # number of floating regfile reads
system.cpu1.idleCycles                         857938                       # Total number of cycles that the CPU has spent unscheduled due to idling
system.cpu1.iew.branchMispredicts             2135611                       # Number of branch mispredicts detected at execute
system.cpu1.iew.exec_branches                30915985                       # Number of branches executed
system.cpu1.iew.exec_nop                            0                       # number of nop insts executed
system.cpu1.iew.exec_rate                    0.264626                       # Inst execution rate
system.cpu1.iew.exec_refs                    46276534                       # number of memory reference insts executed
system.cpu1.iew.exec_stores                  11565186                       # Number of stores executed
system.cpu1.iew.exec_swp                            0                       # number of swp insts executed
system.cpu1.iew.iewBlockCycles              332313936                       # Number of cycles IEW is blocking
system.cpu1.iew.iewDispLoadInsts             35410209                       # Number of dispatched load instructions
system.cpu1.iew.iewDispNonSpecInsts           2100632                       # Number of dispatched non-speculative instructions
system.cpu1.iew.iewDispSquashedInsts          1705151                       # Number of squashed instructions skipped by dispatch
system.cpu1.iew.iewDispStoreInsts            11991699                       # Number of dispatched store instructions
system.cpu1.iew.iewDispatchedInsts          141127864                       # Number of instructions dispatched to IQ
system.cpu1.iew.iewExecLoadInsts             34711348                       # Number of load instructions executed
system.cpu1.iew.iewExecSquashedInsts          1980418                       # Number of squashed instructions skipped in execute
system.cpu1.iew.iewExecutedInsts            135460326                       # Number of executed instructions
system.cpu1.iew.iewIQFullEvents               1431474                       # Number of times the IQ has become full, causing a stall
system.cpu1.iew.iewIdleCycles                       0                       # Number of cycles IEW is idle
system.cpu1.iew.iewLSQFullEvents             12395260                       # Number of times the LSQ has become full, causing a stall
system.cpu1.iew.iewSquashCycles               2016957                       # Number of cycles IEW is squashing
system.cpu1.iew.iewUnblockCycles             16588202                       # Number of cycles IEW is unblocking
system.cpu1.iew.lsq.thread0.blockedLoads            0                       # Number of blocked loads due to partial load-store forwarding
system.cpu1.iew.lsq.thread0.cacheBlocked       129282                       # Number of times an access to memory failed due to the cache being blocked
system.cpu1.iew.lsq.thread0.forwLoads         1093904                       # Number of loads that had data forwarded from stores
system.cpu1.iew.lsq.thread0.ignoredResponses        27609                       # Number of memory responses ignored because the instruction is squashed
system.cpu1.iew.lsq.thread0.invAddrLoads            0                       # Number of loads ignored due to an invalid address
system.cpu1.iew.lsq.thread0.invAddrSwpfs            0                       # Number of software prefetches ignored due to an invalid address
system.cpu1.iew.lsq.thread0.memOrderViolation         2607                       # Number of memory ordering violations
system.cpu1.iew.lsq.thread0.rescheduledLoads        16951                       # Number of loads that were rescheduled
system.cpu1.iew.lsq.thread0.squashedLoads      5232970                       # Number of loads squashed
system.cpu1.iew.lsq.thread0.squashedStores       868685                       # Number of stores squashed
system.cpu1.iew.memOrderViolationEvents          2607                       # Number of memory order violations
system.cpu1.iew.predictedNotTakenIncorrect       545721                       # Number of branches that were predicted not taken incorrectly
system.cpu1.iew.predictedTakenIncorrect       1589890                       # Number of branches that were predicted taken incorrectly
system.cpu1.iew.wb_consumers                 77047605                       # num instructions consuming a value
system.cpu1.iew.wb_count                    133774998                       # cumulative count of insts written-back
system.cpu1.iew.wb_fanout                    0.844953                       # average fanout of values written-back
system.cpu1.iew.wb_producers                 65101589                       # num instructions producing a value
system.cpu1.iew.wb_rate                      0.261333                       # insts written-back per cycle
system.cpu1.iew.wb_sent                     133856225                       # cumulative count of insts sent to commit
system.cpu1.int_regfile_reads               171625533                       # number of integer regfile reads
system.cpu1.int_regfile_writes               90304833                       # number of integer regfile writes
system.cpu1.ipc                              0.234567                       # IPC: Instructions Per Cycle
system.cpu1.ipc_total                        0.234567                       # IPC: Total IPC of All Threads
system.cpu1.iq.FU_type_0::No_OpClass          4200221      3.06%      3.06% # Type of FU issued
system.cpu1.iq.FU_type_0::IntAlu             86387425     62.85%     65.91% # Type of FU issued
system.cpu1.iq.FU_type_0::IntMult                  46      0.00%     65.91% # Type of FU issued
system.cpu1.iq.FU_type_0::IntDiv                   90      0.00%     65.91% # Type of FU issued
system.cpu1.iq.FU_type_0::FloatAdd                  0      0.00%     65.91% # Type of FU issued
system.cpu1.iq.FU_type_0::FloatCmp                  0      0.00%     65.91% # Type of FU issued
system.cpu1.iq.FU_type_0::FloatCvt                  0      0.00%     65.91% # Type of FU issued
system.cpu1.iq.FU_type_0::FloatMult                 0      0.00%     65.91% # Type of FU issued
system.cpu1.iq.FU_type_0::FloatMultAcc              0      0.00%     65.91% # Type of FU issued
system.cpu1.iq.FU_type_0::FloatDiv                  0      0.00%     65.91% # Type of FU issued
system.cpu1.iq.FU_type_0::FloatMisc                 0      0.00%     65.91% # Type of FU issued
system.cpu1.iq.FU_type_0::FloatSqrt                 0      0.00%     65.91% # Type of FU issued
system.cpu1.iq.FU_type_0::SimdAdd                   0      0.00%     65.91% # Type of FU issued
system.cpu1.iq.FU_type_0::SimdAddAcc                0      0.00%     65.91% # Type of FU issued
system.cpu1.iq.FU_type_0::SimdAlu                   0      0.00%     65.91% # Type of FU issued
system.cpu1.iq.FU_type_0::SimdCmp                   0      0.00%     65.91% # Type of FU issued
system.cpu1.iq.FU_type_0::SimdCvt                   0      0.00%     65.91% # Type of FU issued
system.cpu1.iq.FU_type_0::SimdMisc                  0      0.00%     65.91% # Type of FU issued
system.cpu1.iq.FU_type_0::SimdMult                  0      0.00%     65.91% # Type of FU issued
system.cpu1.iq.FU_type_0::SimdMultAcc               0      0.00%     65.91% # Type of FU issued
system.cpu1.iq.FU_type_0::SimdShift                 0      0.00%     65.91% # Type of FU issued
system.cpu1.iq.FU_type_0::SimdShiftAcc              0      0.00%     65.91% # Type of FU issued
system.cpu1.iq.FU_type_0::SimdDiv                   0      0.00%     65.91% # Type of FU issued
system.cpu1.iq.FU_type_0::SimdSqrt                  0      0.00%     65.91% # Type of FU issued
system.cpu1.iq.FU_type_0::SimdFloatAdd              0      0.00%     65.91% # Type of FU issued
system.cpu1.iq.FU_type_0::SimdFloatAlu              0      0.00%     65.91% # Type of FU issued
system.cpu1.iq.FU_type_0::SimdFloatCmp              0      0.00%     65.91% # Type of FU issued
system.cpu1.iq.FU_type_0::SimdFloatCvt              0      0.00%     65.91% # Type of FU issued
system.cpu1.iq.FU_type_0::SimdFloatDiv              0      0.00%     65.91% # Type of FU issued
system.cpu1.iq.FU_type_0::SimdFloatMisc             0      0.00%     65.91% # Type of FU issued
system.cpu1.iq.FU_type_0::SimdFloatMult             0      0.00%     65.91% # Type of FU issued
system.cpu1.iq.FU_type_0::SimdFloatMultAcc            0      0.00%     65.91% # Type of FU issued
system.cpu1.iq.FU_type_0::SimdFloatSqrt             0      0.00%     65.91% # Type of FU issued
system.cpu1.iq.FU_type_0::SimdReduceAdd             0      0.00%     65.91% # Type of FU issued
system.cpu1.iq.FU_type_0::SimdReduceAlu             0      0.00%     65.91% # Type of FU issued
system.cpu1.iq.FU_type_0::SimdReduceCmp             0      0.00%     65.91% # Type of FU issued
system.cpu1.iq.FU_type_0::SimdFloatReduceAdd            0      0.00%     65.91% # Type of FU issued
system.cpu1.iq.FU_type_0::SimdFloatReduceCmp            0      0.00%     65.91% # Type of FU issued
system.cpu1.iq.FU_type_0::SimdAes                   0      0.00%     65.91% # Type of FU issued
system.cpu1.iq.FU_type_0::SimdAesMix                0      0.00%     65.91% # Type of FU issued
system.cpu1.iq.FU_type_0::SimdSha1Hash              0      0.00%     65.91% # Type of FU issued
system.cpu1.iq.FU_type_0::SimdSha1Hash2             0      0.00%     65.91% # Type of FU issued
system.cpu1.iq.FU_type_0::SimdSha256Hash            0      0.00%     65.91% # Type of FU issued
system.cpu1.iq.FU_type_0::SimdSha256Hash2            0      0.00%     65.91% # Type of FU issued
system.cpu1.iq.FU_type_0::SimdShaSigma2             0      0.00%     65.91% # Type of FU issued
system.cpu1.iq.FU_type_0::SimdShaSigma3             0      0.00%     65.91% # Type of FU issued
system.cpu1.iq.FU_type_0::SimdPredAlu               0      0.00%     65.91% # Type of FU issued
system.cpu1.iq.FU_type_0::MemRead            37321034     27.15%     93.06% # Type of FU issued
system.cpu1.iq.FU_type_0::MemWrite            9531916      6.94%    100.00% # Type of FU issued
system.cpu1.iq.FU_type_0::FloatMemRead              0      0.00%    100.00% # Type of FU issued
system.cpu1.iq.FU_type_0::FloatMemWrite            12      0.00%    100.00% # Type of FU issued
system.cpu1.iq.FU_type_0::IprAccess                 0      0.00%    100.00% # Type of FU issued
system.cpu1.iq.FU_type_0::InstPrefetch              0      0.00%    100.00% # Type of FU issued
system.cpu1.iq.FU_type_0::total             137440744                       # Type of FU issued
system.cpu1.iq.fp_alu_accesses                     14                       # Number of floating point alu accesses
system.cpu1.iq.fp_inst_queue_reads                 26                       # Number of floating instruction queue reads
system.cpu1.iq.fp_inst_queue_wakeup_accesses           12                       # Number of floating instruction queue wakeup accesses
system.cpu1.iq.fp_inst_queue_writes                12                       # Number of floating instruction queue writes
system.cpu1.iq.fu_busy_cnt                    2876785                       # FU busy when requested
system.cpu1.iq.fu_busy_rate                  0.020931                       # FU busy rate (busy events/executed inst)
system.cpu1.iq.fu_full::No_OpClass                  0      0.00%      0.00% # attempts to use FU when none available
system.cpu1.iq.fu_full::IntAlu                 618595     21.50%     21.50% # attempts to use FU when none available
system.cpu1.iq.fu_full::IntMult                     0      0.00%     21.50% # attempts to use FU when none available
system.cpu1.iq.fu_full::IntDiv                      0      0.00%     21.50% # attempts to use FU when none available
system.cpu1.iq.fu_full::FloatAdd                    0      0.00%     21.50% # attempts to use FU when none available
system.cpu1.iq.fu_full::FloatCmp                    0      0.00%     21.50% # attempts to use FU when none available
system.cpu1.iq.fu_full::FloatCvt                    0      0.00%     21.50% # attempts to use FU when none available
system.cpu1.iq.fu_full::FloatMult                   0      0.00%     21.50% # attempts to use FU when none available
system.cpu1.iq.fu_full::FloatMultAcc                0      0.00%     21.50% # attempts to use FU when none available
system.cpu1.iq.fu_full::FloatDiv                    0      0.00%     21.50% # attempts to use FU when none available
system.cpu1.iq.fu_full::FloatMisc                   0      0.00%     21.50% # attempts to use FU when none available
system.cpu1.iq.fu_full::FloatSqrt                   0      0.00%     21.50% # attempts to use FU when none available
system.cpu1.iq.fu_full::SimdAdd                     0      0.00%     21.50% # attempts to use FU when none available
system.cpu1.iq.fu_full::SimdAddAcc                  0      0.00%     21.50% # attempts to use FU when none available
system.cpu1.iq.fu_full::SimdAlu                     0      0.00%     21.50% # attempts to use FU when none available
system.cpu1.iq.fu_full::SimdCmp                     0      0.00%     21.50% # attempts to use FU when none available
system.cpu1.iq.fu_full::SimdCvt                     0      0.00%     21.50% # attempts to use FU when none available
system.cpu1.iq.fu_full::SimdMisc                    0      0.00%     21.50% # attempts to use FU when none available
system.cpu1.iq.fu_full::SimdMult                    0      0.00%     21.50% # attempts to use FU when none available
system.cpu1.iq.fu_full::SimdMultAcc                 0      0.00%     21.50% # attempts to use FU when none available
system.cpu1.iq.fu_full::SimdShift                   0      0.00%     21.50% # attempts to use FU when none available
system.cpu1.iq.fu_full::SimdShiftAcc                0      0.00%     21.50% # attempts to use FU when none available
system.cpu1.iq.fu_full::SimdDiv                     0      0.00%     21.50% # attempts to use FU when none available
system.cpu1.iq.fu_full::SimdSqrt                    0      0.00%     21.50% # attempts to use FU when none available
system.cpu1.iq.fu_full::SimdFloatAdd                0      0.00%     21.50% # attempts to use FU when none available
system.cpu1.iq.fu_full::SimdFloatAlu                0      0.00%     21.50% # attempts to use FU when none available
system.cpu1.iq.fu_full::SimdFloatCmp                0      0.00%     21.50% # attempts to use FU when none available
system.cpu1.iq.fu_full::SimdFloatCvt                0      0.00%     21.50% # attempts to use FU when none available
system.cpu1.iq.fu_full::SimdFloatDiv                0      0.00%     21.50% # attempts to use FU when none available
system.cpu1.iq.fu_full::SimdFloatMisc               0      0.00%     21.50% # attempts to use FU when none available
system.cpu1.iq.fu_full::SimdFloatMult               0      0.00%     21.50% # attempts to use FU when none available
system.cpu1.iq.fu_full::SimdFloatMultAcc            0      0.00%     21.50% # attempts to use FU when none available
system.cpu1.iq.fu_full::SimdFloatSqrt               0      0.00%     21.50% # attempts to use FU when none available
system.cpu1.iq.fu_full::SimdReduceAdd               0      0.00%     21.50% # attempts to use FU when none available
system.cpu1.iq.fu_full::SimdReduceAlu               0      0.00%     21.50% # attempts to use FU when none available
system.cpu1.iq.fu_full::SimdReduceCmp               0      0.00%     21.50% # attempts to use FU when none available
system.cpu1.iq.fu_full::SimdFloatReduceAdd            0      0.00%     21.50% # attempts to use FU when none available
system.cpu1.iq.fu_full::SimdFloatReduceCmp            0      0.00%     21.50% # attempts to use FU when none available
system.cpu1.iq.fu_full::SimdAes                     0      0.00%     21.50% # attempts to use FU when none available
system.cpu1.iq.fu_full::SimdAesMix                  0      0.00%     21.50% # attempts to use FU when none available
system.cpu1.iq.fu_full::SimdSha1Hash                0      0.00%     21.50% # attempts to use FU when none available
system.cpu1.iq.fu_full::SimdSha1Hash2               0      0.00%     21.50% # attempts to use FU when none available
system.cpu1.iq.fu_full::SimdSha256Hash              0      0.00%     21.50% # attempts to use FU when none available
system.cpu1.iq.fu_full::SimdSha256Hash2             0      0.00%     21.50% # attempts to use FU when none available
system.cpu1.iq.fu_full::SimdShaSigma2               0      0.00%     21.50% # attempts to use FU when none available
system.cpu1.iq.fu_full::SimdShaSigma3               0      0.00%     21.50% # attempts to use FU when none available
system.cpu1.iq.fu_full::SimdPredAlu                 0      0.00%     21.50% # attempts to use FU when none available
system.cpu1.iq.fu_full::MemRead               1850095     64.31%     85.81% # attempts to use FU when none available
system.cpu1.iq.fu_full::MemWrite               408093     14.19%    100.00% # attempts to use FU when none available
system.cpu1.iq.fu_full::FloatMemRead                0      0.00%    100.00% # attempts to use FU when none available
[...]
system.cpu1.dcache.WriteReq_hits::.cpu1.data      3738718                       # number of WriteReq hits
system.cpu1.dcache.WriteReq_hits::total       3738718                       # number of WriteReq hits
system.cpu1.dcache.WriteReq_misses::.cpu1.data      2173645                       # number of WriteReq misses
system.cpu1.dcache.WriteReq_misses::total      2173645                       # number of WriteReq misses
system.cpu1.dcache.WriteReq_miss_latency::.cpu1.data 149971286503                       # number of WriteReq miss cycles
system.cpu1.dcache.WriteReq_miss_latency::total 149971286503                       # number of WriteReq miss cycles
system.cpu1.dcache.WriteReq_accesses::.cpu1.data      5912363                       # number of WriteReq accesses(hits+misses)
system.cpu1.dcache.WriteReq_accesses::total      5912363                       # number of WriteReq accesses(hits+misses)
system.cpu1.dcache.WriteReq_miss_rate::.cpu1.data     0.367644                       # miss rate for WriteReq accesses
system.cpu1.dcache.WriteReq_miss_rate::total     0.367644                       # miss rate for WriteReq accesses
system.cpu1.dcache.WriteReq_avg_miss_latency::.cpu1.data 68995.298912                       # average WriteReq miss latency
system.cpu1.dcache.WriteReq_avg_miss_latency::total 68995.298912                       # average WriteReq miss latency
system.cpu1.dcache.WriteReq_mshr_hits::.cpu1.data      1949375                       # number of WriteReq MSHR hits
system.cpu1.dcache.WriteReq_mshr_hits::total      1949375                       # number of WriteReq MSHR hits
system.cpu1.dcache.WriteReq_mshr_misses::.cpu1.data       224270                       # number of WriteReq MSHR misses
system.cpu1.dcache.WriteReq_mshr_misses::total       224270                       # number of WriteReq MSHR misses
system.cpu1.dcache.WriteReq_mshr_miss_latency::.cpu1.data  14068720168                       # number of WriteReq MSHR miss cycles
system.cpu1.dcache.WriteReq_mshr_miss_latency::total  14068720168                       # number of WriteReq MSHR miss cycles
system.cpu1.dcache.WriteReq_mshr_miss_rate::.cpu1.data     0.037932                       # mshr miss rate for WriteReq accesses
system.cpu1.dcache.WriteReq_mshr_miss_rate::total     0.037932                       # mshr miss rate for WriteReq accesses
system.cpu1.dcache.WriteReq_avg_mshr_miss_latency::.cpu1.data 62731.172997                       # average WriteReq mshr miss latency
system.cpu1.dcache.WriteReq_avg_mshr_miss_latency::total 62731.172997                       # average WriteReq mshr miss latency
system.cpu1.dcache.LoadLockedReq_hits::.cpu1.data      2179637                       # number of LoadLockedReq hits
system.cpu1.dcache.LoadLockedReq_hits::total      2179637                       # number of LoadLockedReq hits
system.cpu1.dcache.LoadLockedReq_misses::.cpu1.data         8197                       # number of LoadLockedReq misses
system.cpu1.dcache.LoadLockedReq_misses::total         8197                       # number of LoadLockedReq misses
system.cpu1.dcache.LoadLockedReq_miss_latency::.cpu1.data    215534500                       # number of LoadLockedReq miss cycles
system.cpu1.dcache.LoadLockedReq_miss_latency::total    215534500                       # number of LoadLockedReq miss cycles
system.cpu1.dcache.LoadLockedReq_accesses::.cpu1.data      2187834                       # number of LoadLockedReq accesses(hits+misses)
system.cpu1.dcache.LoadLockedReq_accesses::total      2187834                       # number of LoadLockedReq accesses(hits+misses)
system.cpu1.dcache.LoadLockedReq_miss_rate::.cpu1.data     0.003747                       # miss rate for LoadLockedReq accesses
system.cpu1.dcache.LoadLockedReq_miss_rate::total     0.003747                       # miss rate for LoadLockedReq accesses
system.cpu1.dcache.LoadLockedReq_avg_miss_latency::.cpu1.data 26294.314993                       # average LoadLockedReq miss latency
system.cpu1.dcache.LoadLockedReq_avg_miss_latency::total 26294.314993                       # average LoadLockedReq miss latency
system.cpu1.dcache.LoadLockedReq_mshr_hits::.cpu1.data         1027                       # number of LoadLockedReq MSHR hits
system.cpu1.dcache.LoadLockedReq_mshr_hits::total         1027                       # number of LoadLockedReq MSHR hits
system.cpu1.dcache.LoadLockedReq_mshr_misses::.cpu1.data         7170                       # number of LoadLockedReq MSHR misses
system.cpu1.dcache.LoadLockedReq_mshr_misses::total         7170                       # number of LoadLockedReq MSHR misses
system.cpu1.dcache.LoadLockedReq_mshr_miss_latency::.cpu1.data    187770000                       # number of LoadLockedReq MSHR miss cycles
system.cpu1.dcache.LoadLockedReq_mshr_miss_latency::total    187770000                       # number of LoadLockedReq MSHR miss cycles
system.cpu1.dcache.LoadLockedReq_mshr_miss_rate::.cpu1.data     0.003277                       # mshr miss rate for LoadLockedReq accesses
system.cpu1.dcache.LoadLockedReq_mshr_miss_rate::total     0.003277                       # mshr miss rate for LoadLockedReq accesses
system.cpu1.dcache.LoadLockedReq_avg_mshr_miss_latency::.cpu1.data 26188.284519                       # average LoadLockedReq mshr miss latency
system.cpu1.dcache.LoadLockedReq_avg_mshr_miss_latency::total 26188.284519                       # average LoadLockedReq mshr miss latency
system.cpu1.dcache.StoreCondReq_hits::.cpu1.data      2186509                       # number of StoreCondReq hits
system.cpu1.dcache.StoreCondReq_hits::total      2186509                       # number of StoreCondReq hits
system.cpu1.dcache.StoreCondReq_misses::.cpu1.data         1077                       # number of StoreCondReq misses
system.cpu1.dcache.StoreCondReq_misses::total         1077                       # number of StoreCondReq misses
system.cpu1.dcache.StoreCondReq_miss_latency::.cpu1.data     19332500                       # number of StoreCondReq miss cycles
system.cpu1.dcache.StoreCondReq_miss_latency::total     19332500                       # number of StoreCondReq miss cycles
system.cpu1.dcache.StoreCondReq_accesses::.cpu1.data      2187586                       # number of StoreCondReq accesses(hits+misses)
system.cpu1.dcache.StoreCondReq_accesses::total      2187586                       # number of StoreCondReq accesses(hits+misses)
system.cpu1.dcache.StoreCondReq_miss_rate::.cpu1.data     0.000492                       # miss rate for StoreCondReq accesses
system.cpu1.dcache.StoreCondReq_miss_rate::total     0.000492                       # miss rate for StoreCondReq accesses
system.cpu1.dcache.StoreCondReq_avg_miss_latency::.cpu1.data 17950.324977                       # average StoreCondReq miss latency
system.cpu1.dcache.StoreCondReq_avg_miss_latency::total 17950.324977                       # average StoreCondReq miss latency
system.cpu1.dcache.StoreCondReq_mshr_misses::.cpu1.data         1069                       # number of StoreCondReq MSHR misses
system.cpu1.dcache.StoreCondReq_mshr_misses::total         1069                       # number of StoreCondReq MSHR misses
system.cpu1.dcache.StoreCondReq_mshr_miss_latency::.cpu1.data     18281500                       # number of StoreCondReq MSHR miss cycles
system.cpu1.dcache.StoreCondReq_mshr_miss_latency::total     18281500                       # number of StoreCondReq MSHR miss cycles
system.cpu1.dcache.StoreCondReq_mshr_miss_rate::.cpu1.data     0.000489                       # mshr miss rate for StoreCondReq accesses
system.cpu1.dcache.StoreCondReq_mshr_miss_rate::total     0.000489                       # mshr miss rate for StoreCondReq accesses
system.cpu1.dcache.StoreCondReq_avg_mshr_miss_latency::.cpu1.data 17101.496726                       # average StoreCondReq mshr miss latency
system.cpu1.dcache.StoreCondReq_avg_mshr_miss_latency::total 17101.496726                       # average StoreCondReq mshr miss latency
system.cpu1.dcache.StoreCondFailReq_miss_latency::.cpu1.data       603000                       # number of StoreCondFailReq miss cycles
system.cpu1.dcache.StoreCondFailReq_miss_latency::total       603000                       # number of StoreCondFailReq miss cycles
system.cpu1.dcache.StoreCondFailReq_avg_miss_latency::.cpu1.data          inf                       # average StoreCondFailReq miss latency
system.cpu1.dcache.StoreCondFailReq_avg_miss_latency::total          inf                       # average StoreCondFailReq miss latency
system.cpu1.dcache.StoreCondFailReq_mshr_miss_latency::.cpu1.data       585000                       # number of StoreCondFailReq MSHR miss cycles
system.cpu1.dcache.StoreCondFailReq_mshr_miss_latency::total       585000                       # number of StoreCondFailReq MSHR miss cycles
system.cpu1.dcache.StoreCondFailReq_avg_mshr_miss_latency::.cpu1.data          inf                       # average StoreCondFailReq mshr miss latency
system.cpu1.dcache.StoreCondFailReq_avg_mshr_miss_latency::total          inf                       # average StoreCondFailReq mshr miss latency
system.cpu1.dcache.SwapReq_hits::.cpu1.data          496                       # number of SwapReq hits
system.cpu1.dcache.SwapReq_hits::total            496                       # number of SwapReq hits
system.cpu1.dcache.SwapReq_misses::.cpu1.data         1890                       # number of SwapReq misses
system.cpu1.dcache.SwapReq_misses::total         1890                       # number of SwapReq misses
system.cpu1.dcache.SwapReq_miss_latency::.cpu1.data     63468993                       # number of SwapReq miss cycles
system.cpu1.dcache.SwapReq_miss_latency::total     63468993                       # number of SwapReq miss cycles
system.cpu1.dcache.SwapReq_accesses::.cpu1.data         2386                       # number of SwapReq accesses(hits+misses)
system.cpu1.dcache.SwapReq_accesses::total         2386                       # number of SwapReq accesses(hits+misses)
system.cpu1.dcache.SwapReq_miss_rate::.cpu1.data     0.792121                       # miss rate for SwapReq accesses
system.cpu1.dcache.SwapReq_miss_rate::total     0.792121                       # miss rate for SwapReq accesses
system.cpu1.dcache.SwapReq_avg_miss_latency::.cpu1.data 33581.477778                       # average SwapReq miss latency
system.cpu1.dcache.SwapReq_avg_miss_latency::total 33581.477778                       # average SwapReq miss latency
system.cpu1.dcache.SwapReq_mshr_misses::.cpu1.data         1890                       # number of SwapReq MSHR misses
system.cpu1.dcache.SwapReq_mshr_misses::total         1890                       # number of SwapReq MSHR misses
system.cpu1.dcache.SwapReq_mshr_miss_latency::.cpu1.data     61578993                       # number of SwapReq MSHR miss cycles
system.cpu1.dcache.SwapReq_mshr_miss_latency::total     61578993                       # number of SwapReq MSHR miss cycles
system.cpu1.dcache.SwapReq_mshr_miss_rate::.cpu1.data     0.792121                       # mshr miss rate for SwapReq accesses
system.cpu1.dcache.SwapReq_mshr_miss_rate::total     0.792121                       # mshr miss rate for SwapReq accesses
system.cpu1.dcache.SwapReq_avg_mshr_miss_latency::.cpu1.data 32581.477778                       # average SwapReq mshr miss latency
system.cpu1.dcache.SwapReq_avg_mshr_miss_latency::total 32581.477778                       # average SwapReq mshr miss latency
system.cpu1.dcache.tags.pwrStateResidencyTicks::UNDEFINED 1169727317500                       # Cumulative time (in ticks) in various power states
system.cpu1.dcache.tags.tagsinuse           31.993908                       # Cycle average of tags in use
system.cpu1.dcache.tags.total_refs          170902527                       # Total number of references to valid blocks.
system.cpu1.dcache.tags.sampled_refs         13160656                       # Sample count of references to valid blocks.
system.cpu1.dcache.tags.avg_refs            12.985867                       # Average number of references to valid blocks.
system.cpu1.dcache.tags.warmup_cycle                0                       # Cycle when the warmup percentage was hit.
system.cpu1.dcache.tags.occ_blocks::.cpu1.data    31.993908                       # Average occupied blocks per requestor
system.cpu1.dcache.tags.occ_percent::.cpu1.data     0.999810                       # Average percentage of cache occupancy
system.cpu1.dcache.tags.occ_percent::total     0.999810                       # Average percentage of cache occupancy
system.cpu1.dcache.tags.occ_task_id_blocks::1024           31                       # Occupied blocks per task id
system.cpu1.dcache.tags.age_task_id_blocks_1024::2           31                       # Occupied blocks per task id
system.cpu1.dcache.tags.occ_task_id_percent::1024     0.968750                       # Percentage of cache occupancy per task id
system.cpu1.dcache.tags.tag_accesses        392710316                       # Number of tag accesses
system.cpu1.dcache.tags.data_accesses       392710316                       # Number of data accesses
system.cpu_clk_domain.clock                       500                       # Clock period in ticks
system.tol2bus.pwrStateResidencyTicks::UNDEFINED 1169727317500                       # Cumulative time (in ticks) in various power states
system.tol2bus.trans_dist::ReadResp          30800828                       # Transaction distribution
system.tol2bus.trans_dist::WritebackDirty     10650470                       # Transaction distribution
system.tol2bus.trans_dist::WritebackClean     25773058                       # Transaction distribution
system.tol2bus.trans_dist::CleanEvict       100118980                       # Transaction distribution
system.tol2bus.trans_dist::HardPFReq         90358323                       # Transaction distribution
system.tol2bus.trans_dist::HardPFResp               8                       # Transaction distribution
system.tol2bus.trans_dist::UpgradeReq            9342                       # Transaction distribution
system.tol2bus.trans_dist::SCUpgradeReq          2068                       # Transaction distribution
system.tol2bus.trans_dist::UpgradeResp          11410                       # Transaction distribution
system.tol2bus.trans_dist::SCUpgradeFailReq           18                       # Transaction distribution
system.tol2bus.trans_dist::UpgradeFailResp           18                       # Transaction distribution
system.tol2bus.trans_dist::ReadExReq           495074                       # Transaction distribution
system.tol2bus.trans_dist::ReadExResp          495074                       # Transaction distribution
system.tol2bus.trans_dist::ReadCleanReq        406478                       # Transaction distribution
system.tol2bus.trans_dist::ReadSharedReq     30394350                       # Transaction distribution
system.tol2bus.trans_dist::InvalidateReq          231                       # Transaction distribution
system.tol2bus.trans_dist::InvalidateResp          231                       # Transaction distribution
system.tol2bus.pkt_count_system.cpu0.icache.mem_side::system.l2.cpu_side      1203251                       # Packet count per connected master and slave (bytes)
system.tol2bus.pkt_count_system.cpu0.dcache.mem_side::system.l2.cpu_side     53182362                       # Packet count per connected master and slave (bytes)
system.tol2bus.pkt_count_system.cpu1.icache.mem_side::system.l2.cpu_side        16182                       # Packet count per connected master and slave (bytes)
system.tol2bus.pkt_count_system.cpu1.dcache.mem_side::system.l2.cpu_side     39480588                       # Packet count per connected master and slave (bytes)
system.tol2bus.pkt_count::total              93882383                       # Packet count per connected master and slave (bytes)
system.tol2bus.pkt_size_system.cpu0.icache.mem_side::system.l2.cpu_side     51338688                       # Cumulative packet size per connected master and slave (bytes)
system.tol2bus.pkt_size_system.cpu0.dcache.mem_side::system.l2.cpu_side   2268387584                       # Cumulative packet size per connected master and slave (bytes)
system.tol2bus.pkt_size_system.cpu1.icache.mem_side::system.l2.cpu_side       690432                       # Cumulative packet size per connected master and slave (bytes)
system.tol2bus.pkt_size_system.cpu1.dcache.mem_side::system.l2.cpu_side   1683740672                       # Cumulative packet size per connected master and slave (bytes)
system.tol2bus.pkt_size::total             4004157376                       # Cumulative packet size per connected master and slave (bytes)
system.tol2bus.snoops                       195633586                       # Total snoops (count)
system.tol2bus.snoopTraffic                 329888320                       # Total snoop traffic (bytes)
system.tol2bus.snoop_fanout::samples        226984385                       # Request fanout histogram
system.tol2bus.snoop_fanout::mean            0.121775                       # Request fanout histogram
system.tol2bus.snoop_fanout::stdev           0.336277                       # Request fanout histogram
system.tol2bus.snoop_fanout::underflows             0      0.00%      0.00% # Request fanout histogram
system.tol2bus.snoop_fanout::0              200039629     88.13%     88.13% # Request fanout histogram
system.tol2bus.snoop_fanout::1               26248385     11.56%     99.69% # Request fanout histogram
system.tol2bus.snoop_fanout::2                 696371      0.31%    100.00% # Request fanout histogram
system.tol2bus.snoop_fanout::3                      0      0.00%    100.00% # Request fanout histogram
system.tol2bus.snoop_fanout::4                      0      0.00%    100.00% # Request fanout histogram
system.tol2bus.snoop_fanout::5                      0      0.00%    100.00% # Request fanout histogram
system.tol2bus.snoop_fanout::6                      0      0.00%    100.00% # Request fanout histogram
system.tol2bus.snoop_fanout::7                      0      0.00%    100.00% # Request fanout histogram
system.tol2bus.snoop_fanout::8                      0      0.00%    100.00% # Request fanout histogram
system.tol2bus.snoop_fanout::overflows              0      0.00%    100.00% # Request fanout histogram
system.tol2bus.snoop_fanout::min_value              0                       # Request fanout histogram
system.tol2bus.snoop_fanout::max_value              2                       # Request fanout histogram
system.tol2bus.snoop_fanout::total          226984385                       # Request fanout histogram
system.tol2bus.reqLayer0.occupancy        62669640508                       # Layer occupancy (ticks)
system.tol2bus.reqLayer0.utilization              5.4                       # Layer utilization (%)
system.tol2bus.respLayer1.occupancy       26605465947                       # Layer occupancy (ticks)
system.tol2bus.respLayer1.utilization             2.3                       # Layer utilization (%)
system.tol2bus.respLayer0.occupancy         601793664                       # Layer occupancy (ticks)
system.tol2bus.respLayer0.utilization             0.1                       # Layer utilization (%)
system.tol2bus.respLayer3.occupancy       19752933657                       # Layer occupancy (ticks)
system.tol2bus.respLayer3.utilization             1.7                       # Layer utilization (%)
system.tol2bus.respLayer2.occupancy           8135910                       # Layer occupancy (ticks)
system.tol2bus.respLayer2.utilization             0.0                       # Layer utilization (%)
system.tol2bus.snoopLayer0.occupancy            12001                       # Layer occupancy (ticks)
system.tol2bus.snoopLayer0.utilization            0.0                       # Layer utilization (%)

---------- End Simulation Statistics   ----------
