
---------- Begin Simulation Statistics ----------
final_tick                               1177028907000                       # Number of ticks from beginning of simulation (restored from checkpoints and never reset)
host_inst_rate                                  80472                       # Simulator instruction rate (inst/s)
host_mem_usage                                 738792                       # Number of bytes of host memory used
host_op_rate                                    80707                       # Simulator op (including micro ops) rate (op/s)
host_seconds                                 17905.65                       # Real time elapsed on the host
host_tick_rate                               65735061                       # Simulator tick rate (ticks/s)
sim_freq                                 1000000000000                       # Frequency of simulated ticks
sim_insts                                  1440908138                       # Number of instructions simulated
sim_ops                                    1445113150                       # Number of ops (including micro ops) simulated
sim_seconds                                  1.177029                       # Number of seconds simulated
sim_ticks                                1177028907000                       # Number of ticks simulated
system.cpu0.branchPred.BTBCorrect                   0                       # Number of correct BTB predictions (this stat may not work properly.
system.cpu0.branchPred.BTBHitPct            88.054974                       # BTB Hit Percentage
system.cpu0.branchPred.BTBHits              170554329                       # Number of BTB hits
system.cpu0.branchPred.BTBLookups           193690738                       # Number of BTB lookups
system.cpu0.branchPred.RASInCorrect                 0                       # Number of incorrect RAS predictions.
system.cpu0.branchPred.condIncorrect         16579557                       # Number of conditional branches incorrect
system.cpu0.branchPred.condPredicted        264765035                       # Number of conditional branches predicted
system.cpu0.branchPred.indirectHits          20747283                       # Number of indirect target hits.
system.cpu0.branchPred.indirectLookups       21457946                       # Number of indirect predictor lookups.
system.cpu0.branchPred.indirectMisses          710663                       # Number of indirect misses.
system.cpu0.branchPred.lookups              334184165                       # Number of BP lookups
system.cpu0.branchPred.usedRAS                      0                       # Number of times the RAS was used to get a target.
system.cpu0.branchPredindirectMispredicted      2150064                       # Number of mispredicted indirect branches.
system.cpu0.commit.amos                       1050461                       # Number of atomic instructions committed
system.cpu0.commit.branchMispredicts         10012555                       # The number of times a branch was mispredicted
system.cpu0.commit.branches                 313654249                       # Number of branches committed
system.cpu0.commit.bw_lim_events             31428699                       # number cycles where commit BW limit reached
system.cpu0.commit.commitNonSpecStalls        3160647                       # The number of times commit has been forced to stall to communicate backwards
system.cpu0.commit.commitSquashedInsts       69079552                       # The number of squashed insts skipped by commit
system.cpu0.commit.committedInsts          1250509345                       # Number of instructions committed
system.cpu0.commit.committedOps            1251563106                       # Number of ops (including micro ops) committed
system.cpu0.commit.committed_per_cycle::samples   2182260452                       # Number of insts commited each cycle
system.cpu0.commit.committed_per_cycle::mean     0.573517                       # Number of insts commited each cycle
system.cpu0.commit.committed_per_cycle::stdev     1.302694                       # Number of insts commited each cycle
system.cpu0.commit.committed_per_cycle::underflows            0      0.00%      0.00% # Number of insts commited each cycle
system.cpu0.commit.committed_per_cycle::0   1560543659     71.51%     71.51% # Number of insts commited each cycle
system.cpu0.commit.committed_per_cycle::1    368136474     16.87%     88.38% # Number of insts commited each cycle
system.cpu0.commit.committed_per_cycle::2     97215974      4.45%     92.83% # Number of insts commited each cycle
system.cpu0.commit.committed_per_cycle::3     89000100      4.08%     96.91% # Number of insts commited each cycle
system.cpu0.commit.committed_per_cycle::4     22074664      1.01%     97.92% # Number of insts commited each cycle
system.cpu0.commit.committed_per_cycle::5      5589798      0.26%     98.18% # Number of insts commited each cycle
system.cpu0.commit.committed_per_cycle::6      3580442      0.16%     98.34% # Number of insts commited each cycle
system.cpu0.commit.committed_per_cycle::7      4690642      0.21%     98.56% # Number of insts commited each cycle
system.cpu0.commit.committed_per_cycle::8     31428699      1.44%    100.00% # Number of insts commited each cycle
system.cpu0.commit.committed_per_cycle::overflows            0      0.00%    100.00% # Number of insts commited each cycle
system.cpu0.commit.committed_per_cycle::min_value            0                       # Number of insts commited each cycle
system.cpu0.commit.committed_per_cycle::max_value            8                       # Number of insts commited each cycle
system.cpu0.commit.committed_per_cycle::total   2182260452                       # Number of insts commited each cycle
system.cpu0.commit.fp_insts                        50                       # Number of committed floating point instructions.
system.cpu0.commit.function_calls            24112943                       # Number of function calls committed.
system.cpu0.commit.int_insts               1209809351                       # Number of committed integer instructions.
system.cpu0.commit.loads                    388697707                       # Number of loads committed
system.cpu0.commit.membars                    2104082                       # Number of memory barriers committed
system.cpu0.commit.op_class_0::No_OpClass      2104088      0.17%      0.17% # Class of committed instruction
system.cpu0.commit.op_class_0::IntAlu       699523524     55.89%     56.06% # Class of committed instruction
system.cpu0.commit.op_class_0::IntMult       11831882      0.95%     57.01% # Class of committed instruction
system.cpu0.commit.op_class_0::IntDiv         2099835      0.17%     57.17% # Class of committed instruction
system.cpu0.commit.op_class_0::FloatAdd             0      0.00%     57.17% # Class of committed instruction
system.cpu0.commit.op_class_0::FloatCmp             4      0.00%     57.17% # Class of committed instruction
system.cpu0.commit.op_class_0::FloatCvt            12      0.00%     57.17% # Class of committed instruction
system.cpu0.commit.op_class_0::FloatMult            0      0.00%     57.17% # Class of committed instruction
system.cpu0.commit.op_class_0::FloatMultAcc            0      0.00%     57.17% # Class of committed instruction
system.cpu0.commit.op_class_0::FloatDiv             2      0.00%     57.17% # Class of committed instruction
system.cpu0.commit.op_class_0::FloatMisc            4      0.00%     57.17% # Class of committed instruction
system.cpu0.commit.op_class_0::FloatSqrt            0      0.00%     57.17% # Class of committed instruction
system.cpu0.commit.op_class_0::SimdAdd              0      0.00%     57.17% # Class of committed instruction
system.cpu0.commit.op_class_0::SimdAddAcc            0      0.00%     57.17% # Class of committed instruction
system.cpu0.commit.op_class_0::SimdAlu              0      0.00%     57.17% # Class of committed instruction
system.cpu0.commit.op_class_0::SimdCmp              0      0.00%     57.17% # Class of committed instruction
system.cpu0.commit.op_class_0::SimdCvt              0      0.00%     57.17% # Class of committed instruction
system.cpu0.commit.op_class_0::SimdMisc             0      0.00%     57.17% # Class of committed instruction
system.cpu0.commit.op_class_0::SimdMult             0      0.00%     57.17% # Class of committed instruction
system.cpu0.commit.op_class_0::SimdMultAcc            0      0.00%     57.17% # Class of committed instruction
system.cpu0.commit.op_class_0::SimdShift            0      0.00%     57.17% # Class of committed instruction
system.cpu0.commit.op_class_0::SimdShiftAcc            0      0.00%     57.17% # Class of committed instruction
system.cpu0.commit.op_class_0::SimdDiv              0      0.00%     57.17% # Class of committed instruction
system.cpu0.commit.op_class_0::SimdSqrt             0      0.00%     57.17% # Class of committed instruction
system.cpu0.commit.op_class_0::SimdFloatAdd            0      0.00%     57.17% # Class of committed instruction
system.cpu0.commit.op_class_0::SimdFloatAlu            0      0.00%     57.17% # Class of committed instruction
system.cpu0.commit.op_class_0::SimdFloatCmp            0      0.00%     57.17% # Class of committed instruction
system.cpu0.commit.op_class_0::SimdFloatCvt            0      0.00%     57.17% # Class of committed instruction
system.cpu0.commit.op_class_0::SimdFloatDiv            0      0.00%     57.17% # Class of committed instruction
system.cpu0.commit.op_class_0::SimdFloatMisc            0      0.00%     57.17% # Class of committed instruction
system.cpu0.commit.op_class_0::SimdFloatMult            0      0.00%     57.17% # Class of committed instruction
system.cpu0.commit.op_class_0::SimdFloatMultAcc            0      0.00%     57.17% # Class of committed instruction
system.cpu0.commit.op_class_0::SimdFloatSqrt            0      0.00%     57.17% # Class of committed instruction
system.cpu0.commit.op_class_0::SimdReduceAdd            0      0.00%     57.17% # Class of committed instruction
system.cpu0.commit.op_class_0::SimdReduceAlu            0      0.00%     57.17% # Class of committed instruction
system.cpu0.commit.op_class_0::SimdReduceCmp            0      0.00%     57.17% # Class of committed instruction
system.cpu0.commit.op_class_0::SimdFloatReduceAdd            0      0.00%     57.17% # Class of committed instruction
system.cpu0.commit.op_class_0::SimdFloatReduceCmp            0      0.00%     57.17% # Class of committed instruction
system.cpu0.commit.op_class_0::SimdAes              0      0.00%     57.17% # Class of committed instruction
system.cpu0.commit.op_class_0::SimdAesMix            0      0.00%     57.17% # Class of committed instruction
system.cpu0.commit.op_class_0::SimdSha1Hash            0      0.00%     57.17% # Class of committed instruction
system.cpu0.commit.op_class_0::SimdSha1Hash2            0      0.00%     57.17% # Class of committed instruction
system.cpu0.commit.op_class_0::SimdSha256Hash            0      0.00%     57.17% # Class of committed instruction
system.cpu0.commit.op_class_0::SimdSha256Hash2            0      0.00%     57.17% # Class of committed instruction
system.cpu0.commit.op_class_0::SimdShaSigma2            0      0.00%     57.17% # Class of committed instruction
system.cpu0.commit.op_class_0::SimdShaSigma3            0      0.00%     57.17% # Class of committed instruction
system.cpu0.commit.op_class_0::SimdPredAlu            0      0.00%     57.17% # Class of committed instruction
system.cpu0.commit.op_class_0::MemRead      389748160     31.14%     88.31% # Class of committed instruction
system.cpu0.commit.op_class_0::MemWrite     146255567     11.69%    100.00% # Class of committed instruction
system.cpu0.commit.op_class_0::FloatMemRead            8      0.00%    100.00% # Class of committed instruction
system.cpu0.commit.op_class_0::FloatMemWrite           20      0.00%    100.00% # Class of committed instruction
system.cpu0.commit.op_class_0::IprAccess            0      0.00%    100.00% # Class of committed instruction
system.cpu0.commit.op_class_0::InstPrefetch            0      0.00%    100.00% # Class of committed instruction
system.cpu0.commit.op_class_0::total       1251563106                       # Class of committed instruction
system.cpu0.commit.refs                     536003755                       # Number of memory references committed
system.cpu0.commit.swp_count                        0                       # Number of s/w prefetches committed
system.cpu0.commit.vec_insts                        0                       # Number of committed Vector instructions.
system.cpu0.committedInsts                 1250509345                       # Number of Instructions Simulated
system.cpu0.committedOps                   1251563106                       # Number of Ops (including micro ops) Simulated
system.cpu0.cpi                              1.876795                       # CPI: Cycles Per Instruction
system.cpu0.cpi_total                        1.876795                       # CPI: Total CPI of All Threads
system.cpu0.decode.BlockedCycles            267952048                       # Number of cycles decode is blocked
system.cpu0.decode.BranchMispred              6593461                       # Number of times decode detected a branch misprediction
system.cpu0.decode.BranchResolved           168994687                       # Number of times decode resolved a branch
system.cpu0.decode.DecodedInsts            1349486585                       # Number of instructions handled by decode
system.cpu0.decode.IdleCycles               977884798                       # Number of cycles decode is idle
system.cpu0.decode.RunCycles                937988812                       # Number of cycles decode is running
system.cpu0.decode.SquashCycles              10025575                       # Number of cycles decode is squashing
system.cpu0.decode.SquashedInsts             13591350                       # Number of squashed instructions handled by decode
system.cpu0.decode.UnblockCycles              3822092                       # Number of cycles decode is unblocking
system.cpu0.dtb.accesses                            0                       # DTB accesses
system.cpu0.dtb.hits                                0                       # DTB hits
system.cpu0.dtb.misses                              0                       # DTB misses
system.cpu0.dtb.read_accesses                       0                       # DTB read accesses
system.cpu0.dtb.read_hits                           0                       # DTB read hits
system.cpu0.dtb.read_misses                         0                       # DTB read misses
system.cpu0.dtb.write_accesses                      0                       # DTB write accesses
system.cpu0.dtb.write_hits                          0                       # DTB write hits
system.cpu0.dtb.write_misses                        0                       # DTB write misses
system.cpu0.fetch.Branches                  334184165                       # Number of branches that fetch encountered
system.cpu0.fetch.CacheLines                248921846                       # Number of cache lines fetched
system.cpu0.fetch.Cycles                   1228152546                       # Number of cycles fetch has run and was not squashing or blocked
system.cpu0.fetch.IcacheSquashes              5283209                       # Number of outstanding Icache misses that were squashed
system.cpu0.fetch.IcacheWaitRetryStallCycles           82                       # Number of stall cycles due to full MSHR
system.cpu0.fetch.Insts                    1380547947                       # Number of instructions fetch has processed
system.cpu0.fetch.MiscStallCycles                  33                       # Number of cycles fetch has spent waiting on interrupts, or bad addresses, or out of MSHRs
system.cpu0.fetch.PendingTrapStallCycles          119                       # Number of stall cycles due to pending traps
system.cpu0.fetch.SquashCycles               33185192                       # Number of cycles fetch has spent squashing
system.cpu0.fetch.branchRate                 0.142391                       # Number of branch fetches per cycle
system.cpu0.fetch.icacheStallCycles         952927949                       # Number of cycles fetch is stalled on an Icache miss
system.cpu0.fetch.predictedBranches         191301612                       # Number of branches that fetch has predicted taken
system.cpu0.fetch.rate                       0.588231                       # Number of inst fetches per cycle
system.cpu0.fetch.rateDist::samples        2197673325                       # Number of instructions fetched each cycle (Total)
system.cpu0.fetch.rateDist::mean             0.629826                       # Number of instructions fetched each cycle (Total)
system.cpu0.fetch.rateDist::stdev            0.904405                       # Number of instructions fetched each cycle (Total)
system.cpu0.fetch.rateDist::underflows              0      0.00%      0.00% # Number of instructions fetched each cycle (Total)
system.cpu0.fetch.rateDist::0              1223287890     55.66%     55.66% # Number of instructions fetched each cycle (Total)
system.cpu0.fetch.rateDist::1               725209145     33.00%     88.66% # Number of instructions fetched each cycle (Total)
system.cpu0.fetch.rateDist::2               128990726      5.87%     94.53% # Number of instructions fetched each cycle (Total)
system.cpu0.fetch.rateDist::3                98335352      4.47%     99.01% # Number of instructions fetched each cycle (Total)
system.cpu0.fetch.rateDist::4                12369856      0.56%     99.57% # Number of instructions fetched each cycle (Total)
system.cpu0.fetch.rateDist::5                 4619189      0.21%     99.78% # Number of instructions fetched each cycle (Total)
system.cpu0.fetch.rateDist::6                  653145      0.03%     99.81% # Number of instructions fetched each cycle (Total)
system.cpu0.fetch.rateDist::7                 4203820      0.19%    100.00% # Number of instructions fetched each cycle (Total)
system.cpu0.fetch.rateDist::8                    4202      0.00%    100.00% # Number of instructions fetched each cycle (Total)
system.cpu0.fetch.rateDist::overflows               0      0.00%    100.00% # Number of instructions fetched each cycle (Total)
system.cpu0.fetch.rateDist::min_value               0                       # Number of instructions fetched each cycle (Total)
system.cpu0.fetch.rateDist::max_value               8                       # Number of instructions fetched each cycle (Total)
system.cpu0.fetch.rateDist::total          2197673325                       # Number of instructions fetched each cycle (Total)
system.cpu0.fp_regfile_reads                       44                       # number of floating regfile reads
system.cpu0.fp_regfile_writes                      22                       # number of floating regfile writes
system.cpu0.idleCycles                      149276005                       # Total number of cycles that the CPU has spent unscheduled due to idling
system.cpu0.iew.branchMispredicts            10079020                       # Number of branch mispredicts detected at execute
system.cpu0.iew.exec_branches               321417345                       # Number of branches executed
system.cpu0.iew.exec_nop                            0                       # number of nop insts executed
system.cpu0.iew.exec_rate                    0.549202                       # Inst execution rate
system.cpu0.iew.exec_refs                   555927699                       # number of memory reference insts executed
system.cpu0.iew.exec_stores                 149381803                       # Number of stores executed
system.cpu0.iew.exec_swp                            0                       # number of swp insts executed
system.cpu0.iew.iewBlockCycles              200089434                       # Number of cycles IEW is blocking
system.cpu0.iew.iewDispLoadInsts            416626254                       # Number of dispatched load instructions
system.cpu0.iew.iewDispNonSpecInsts           2411208                       # Number of dispatched non-speculative instructions
system.cpu0.iew.iewDispSquashedInsts          5573849                       # Number of squashed instructions skipped by dispatch
system.cpu0.iew.iewDispStoreInsts           152794997                       # Number of dispatched store instructions
system.cpu0.iew.iewDispatchedInsts         1320588930                       # Number of instructions dispatched to IQ
system.cpu0.iew.iewExecLoadInsts            406545896                       # Number of load instructions executed
system.cpu0.iew.iewExecSquashedInsts          7305855                       # Number of squashed instructions skipped in execute
system.cpu0.iew.iewExecutedInsts           1288949720                       # Number of executed instructions
system.cpu0.iew.iewIQFullEvents                981432                       # Number of times the IQ has become full, causing a stall
system.cpu0.iew.iewIdleCycles                       0                       # Number of cycles IEW is idle
system.cpu0.iew.iewLSQFullEvents              9983556                       # Number of times the LSQ has become full, causing a stall
system.cpu0.iew.iewSquashCycles              10025575                       # Number of cycles IEW is squashing
system.cpu0.iew.iewUnblockCycles             12134780                       # Number of cycles IEW is unblocking
system.cpu0.iew.lsq.thread0.blockedLoads            0                       # Number of blocked loads due to partial load-store forwarding
system.cpu0.iew.lsq.thread0.cacheBlocked       179683                       # Number of times an access to memory failed due to the cache being blocked
system.cpu0.iew.lsq.thread0.forwLoads        20243149                       # Number of loads that had data forwarded from stores
system.cpu0.iew.lsq.thread0.ignoredResponses        17430                       # Number of memory responses ignored because the instruction is squashed
system.cpu0.iew.lsq.thread0.invAddrLoads            0                       # Number of loads ignored due to an invalid address
system.cpu0.iew.lsq.thread0.invAddrSwpfs            0                       # Number of software prefetches ignored due to an invalid address
system.cpu0.iew.lsq.thread0.memOrderViolation        11852                       # Number of memory ordering violations
system.cpu0.iew.lsq.thread0.rescheduledLoads      4550577                       # Number of loads that were rescheduled
system.cpu0.iew.lsq.thread0.squashedLoads     27928547                       # Number of loads squashed
system.cpu0.iew.lsq.thread0.squashedStores      5488949                       # Number of stores squashed
system.cpu0.iew.memOrderViolationEvents         11852                       # Number of memory order violations
system.cpu0.iew.predictedNotTakenIncorrect       700382                       # Number of branches that were predicted not taken incorrectly
system.cpu0.iew.predictedTakenIncorrect       9378638                       # Number of branches that were predicted taken incorrectly
system.cpu0.iew.wb_consumers                540499566                       # num instructions consuming a value
system.cpu0.iew.wb_count                   1280163586                       # cumulative count of insts written-back
system.cpu0.iew.wb_fanout                    0.895776                       # average fanout of values written-back
system.cpu0.iew.wb_producers                484166792                       # num instructions producing a value
system.cpu0.iew.wb_rate                      0.545459                       # insts written-back per cycle
system.cpu0.iew.wb_sent                    1280244555                       # cumulative count of insts sent to commit
system.cpu0.int_regfile_reads              1581773322                       # number of integer regfile reads
system.cpu0.int_regfile_writes              819586102                       # number of integer regfile writes
system.cpu0.ipc                              0.532823                       # IPC: Instructions Per Cycle
system.cpu0.ipc_total                        0.532823                       # IPC: Total IPC of All Threads
system.cpu0.iq.FU_type_0::No_OpClass          2106146      0.16%      0.16% # Type of FU issued
system.cpu0.iq.FU_type_0::IntAlu            719867086     55.53%     55.70% # Type of FU issued
system.cpu0.iq.FU_type_0::IntMult            11834086      0.91%     56.61% # Type of FU issued
system.cpu0.iq.FU_type_0::IntDiv              2100409      0.16%     56.77% # Type of FU issued
system.cpu0.iq.FU_type_0::FloatAdd                  0      0.00%     56.77% # Type of FU issued
system.cpu0.iq.FU_type_0::FloatCmp                  4      0.00%     56.77% # Type of FU issued
system.cpu0.iq.FU_type_0::FloatCvt                 12      0.00%     56.77% # Type of FU issued
system.cpu0.iq.FU_type_0::FloatMult                 0      0.00%     56.77% # Type of FU issued
system.cpu0.iq.FU_type_0::FloatMultAcc              0      0.00%     56.77% # Type of FU issued
system.cpu0.iq.FU_type_0::FloatDiv                  2      0.00%     56.77% # Type of FU issued
system.cpu0.iq.FU_type_0::FloatMisc                 4      0.00%     56.77% # Type of FU issued
system.cpu0.iq.FU_type_0::FloatSqrt                 0      0.00%     56.77% # Type of FU issued
system.cpu0.iq.FU_type_0::SimdAdd                   0      0.00%     56.77% # Type of FU issued
system.cpu0.iq.FU_type_0::SimdAddAcc                0      0.00%     56.77% # Type of FU issued
system.cpu0.iq.FU_type_0::SimdAlu                   0      0.00%     56.77% # Type of FU issued
system.cpu0.iq.FU_type_0::SimdCmp                   0      0.00%     56.77% # Type of FU issued
system.cpu0.iq.FU_type_0::SimdCvt                   0      0.00%     56.77% # Type of FU issued
system.cpu0.iq.FU_type_0::SimdMisc                  0      0.00%     56.77% # Type of FU issued
system.cpu0.iq.FU_type_0::SimdMult                  0      0.00%     56.77% # Type of FU issued
system.cpu0.iq.FU_type_0::SimdMultAcc               0      0.00%     56.77% # Type of FU issued
system.cpu0.iq.FU_type_0::SimdShift                 0      0.00%     56.77% # Type of FU issued
system.cpu0.iq.FU_type_0::SimdShiftAcc              0      0.00%     56.77% # Type of FU issued
system.cpu0.iq.FU_type_0::SimdDiv                   0      0.00%     56.77% # Type of FU issued
system.cpu0.iq.FU_type_0::SimdSqrt                  0      0.00%     56.77% # Type of FU issued
system.cpu0.iq.FU_type_0::SimdFloatAdd              0      0.00%     56.77% # Type of FU issued
system.cpu0.iq.FU_type_0::SimdFloatAlu              0      0.00%     56.77% # Type of FU issued
system.cpu0.iq.FU_type_0::SimdFloatCmp              0      0.00%     56.77% # Type of FU issued
system.cpu0.iq.FU_type_0::SimdFloatCvt              0      0.00%     56.77% # Type of FU issued
system.cpu0.iq.FU_type_0::SimdFloatDiv              0      0.00%     56.77% # Type of FU issued
system.cpu0.iq.FU_type_0::SimdFloatMisc             0      0.00%     56.77% # Type of FU issued
system.cpu0.iq.FU_type_0::SimdFloatMult             0      0.00%     56.77% # Type of FU issued
system.cpu0.iq.FU_type_0::SimdFloatMultAcc            0      0.00%     56.77% # Type of FU issued
system.cpu0.iq.FU_type_0::SimdFloatSqrt             0      0.00%     56.77% # Type of FU issued
system.cpu0.iq.FU_type_0::SimdReduceAdd             0      0.00%     56.77% # Type of FU issued
system.cpu0.iq.FU_type_0::SimdReduceAlu             0      0.00%     56.77% # Type of FU issued
system.cpu0.iq.FU_type_0::SimdReduceCmp             0      0.00%     56.77% # Type of FU issued
system.cpu0.iq.FU_type_0::SimdFloatReduceAdd            0      0.00%     56.77% # Type of FU issued
system.cpu0.iq.FU_type_0::SimdFloatReduceCmp            0      0.00%     56.77% # Type of FU issued
system.cpu0.iq.FU_type_0::SimdAes                   0      0.00%     56.77% # Type of FU issued
system.cpu0.iq.FU_type_0::SimdAesMix                0      0.00%     56.77% # Type of FU issued
system.cpu0.iq.FU_type_0::SimdSha1Hash              0      0.00%     56.77% # Type of FU issued
system.cpu0.iq.FU_type_0::SimdSha1Hash2             0      0.00%     56.77% # Type of FU issued
system.cpu0.iq.FU_type_0::SimdSha256Hash            0      0.00%     56.77% # Type of FU issued
system.cpu0.iq.FU_type_0::SimdSha256Hash2            0      0.00%     56.77% # Type of FU issued
system.cpu0.iq.FU_type_0::SimdShaSigma2             0      0.00%     56.77% # Type of FU issued
system.cpu0.iq.FU_type_0::SimdShaSigma3             0      0.00%     56.77% # Type of FU issued
system.cpu0.iq.FU_type_0::SimdPredAlu               0      0.00%     56.77% # Type of FU issued
system.cpu0.iq.FU_type_0::MemRead           411626795     31.76%     88.53% # Type of FU issued
system.cpu0.iq.FU_type_0::MemWrite          148721004     11.47%    100.00% # Type of FU issued
system.cpu0.iq.FU_type_0::FloatMemRead              8      0.00%    100.00% # Type of FU issued
system.cpu0.iq.FU_type_0::FloatMemWrite            20      0.00%    100.00% # Type of FU issued
system.cpu0.iq.FU_type_0::IprAccess                 0      0.00%    100.00% # Type of FU issued
system.cpu0.iq.FU_type_0::InstPrefetch              0      0.00%    100.00% # Type of FU issued
system.cpu0.iq.FU_type_0::total            1296255576                       # Type of FU issued
system.cpu0.iq.fp_alu_accesses                     52                       # Number of floating point alu accesses
system.cpu0.iq.fp_inst_queue_reads                102                       # Number of floating instruction queue reads
system.cpu0.iq.fp_inst_queue_wakeup_accesses           50                       # Number of floating instruction queue wakeup accesses
system.cpu0.iq.fp_inst_queue_writes                50                       # Number of floating instruction queue writes
system.cpu0.iq.fu_busy_cnt                    1893416                       # FU busy when requested
system.cpu0.iq.fu_busy_rate                  0.001461                       # FU busy rate (busy events/executed inst)
system.cpu0.iq.fu_full::No_OpClass                  0      0.00%      0.00% # attempts to use FU when none available
system.cpu0.iq.fu_full::IntAlu                 353980     18.70%     18.70% # attempts to use FU when none available
system.cpu0.iq.fu_full::IntMult                     0      0.00%     18.70% # attempts to use FU when none available
system.cpu0.iq.fu_full::IntDiv                      0      0.00%     18.70% # attempts to use FU when none available
system.cpu0.iq.fu_full::FloatAdd                    0      0.00%     18.70% # attempts to use FU when none available
system.cpu0.iq.fu_full::FloatCmp                    0      0.00%     18.70% # attempts to use FU when none available
system.cpu0.iq.fu_full::FloatCvt                    0      0.00%     18.70% # attempts to use FU when none available
system.cpu0.iq.fu_full::FloatMult                   0      0.00%     18.70% # attempts to use FU when none available
system.cpu0.iq.fu_full::FloatMultAcc                0      0.00%     18.70% # attempts to use FU when none available
system.cpu0.iq.fu_full::FloatDiv                    0      0.00%     18.70% # attempts to use FU when none available
system.cpu0.iq.fu_full::FloatMisc                   0      0.00%     18.70% # attempts to use FU when none available
system.cpu0.iq.fu_full::FloatSqrt                   0      0.00%     18.70% # attempts to use FU when none available
system.cpu0.iq.fu_full::SimdAdd                     0      0.00%     18.70% # attempts to use FU when none available
system.cpu0.iq.fu_full::SimdAddAcc                  0      0.00%     18.70% # attempts to use FU when none available
system.cpu0.iq.fu_full::SimdAlu                     0      0.00%     18.70% # attempts to use FU when none available
system.cpu0.iq.fu_full::SimdCmp                     0      0.00%     18.70% # attempts to use FU when none available
system.cpu0.iq.fu_full::SimdCvt                     0      0.00%     18.70% # attempts to use FU when none available
system.cpu0.iq.fu_full::SimdMisc                    0      0.00%     18.70% # attempts to use FU when none available
system.cpu0.iq.fu_full::SimdMult                    0      0.00%     18.70% # attempts to use FU when none available
system.cpu0.iq.fu_full::SimdMultAcc                 0      0.00%     18.70% # attempts to use FU when none available
system.cpu0.iq.fu_full::SimdShift                   0      0.00%     18.70% # attempts to use FU when none available
system.cpu0.iq.fu_full::SimdShiftAcc                0      0.00%     18.70% # attempts to use FU when none available
system.cpu0.iq.fu_full::SimdDiv                     0      0.00%     18.70% # attempts to use FU when none available
system.cpu0.iq.fu_full::SimdSqrt                    0      0.00%     18.70% # attempts to use FU when none available
system.cpu0.iq.fu_full::SimdFloatAdd                0      0.00%     18.70% # attempts to use FU when none available
system.cpu0.iq.fu_full::SimdFloatAlu                0      0.00%     18.70% # attempts to use FU when none available
system.cpu0.iq.fu_full::SimdFloatCmp                0      0.00%     18.70% # attempts to use FU when none available
system.cpu0.iq.fu_full::SimdFloatCvt                0      0.00%     18.70% # attempts to use FU when none available
system.cpu0.iq.fu_full::SimdFloatDiv                0      0.00%     18.70% # attempts to use FU when none available
system.cpu0.iq.fu_full::SimdFloatMisc               0      0.00%     18.70% # attempts to use FU when none available
system.cpu0.iq.fu_full::SimdFloatMult               0      0.00%     18.70% # attempts to use FU when none available
system.cpu0.iq.fu_full::SimdFloatMultAcc            0      0.00%     18.70% # attempts to use FU when none available
system.cpu0.iq.fu_full::SimdFloatSqrt               0      0.00%     18.70% # attempts to use FU when none available
system.cpu0.iq.fu_full::SimdReduceAdd               0      0.00%     18.70% # attempts to use FU when none available
system.cpu0.iq.fu_full::SimdReduceAlu               0      0.00%     18.70% # attempts to use FU when none available
system.cpu0.iq.fu_full::SimdReduceCmp               0      0.00%     18.70% # attempts to use FU when none available
system.cpu0.iq.fu_full::SimdFloatReduceAdd            0      0.00%     18.70% # attempts to use FU when none available
system.cpu0.iq.fu_full::SimdFloatReduceCmp            0      0.00%     18.70% # attempts to use FU when none available
system.cpu0.iq.fu_full::SimdAes                     0      0.00%     18.70% # attempts to use FU when none available
system.cpu0.iq.fu_full::SimdAesMix                  0      0.00%     18.70% # attempts to use FU when none available
system.cpu0.iq.fu_full::SimdSha1Hash                0      0.00%     18.70% # attempts to use FU when none available
system.cpu0.iq.fu_full::SimdSha1Hash2               0      0.00%     18.70% # attempts to use FU when none available
system.cpu0.iq.fu_full::SimdSha256Hash              0      0.00%     18.70% # attempts to use FU when none available
system.cpu0.iq.fu_full::SimdSha256Hash2             0      0.00%     18.70% # attempts to use FU when none available
system.cpu0.iq.fu_full::SimdShaSigma2               0      0.00%     18.70% # attempts to use FU when none available
system.cpu0.iq.fu_full::SimdShaSigma3               0      0.00%     18.70% # attempts to use FU when none available
system.cpu0.iq.fu_full::SimdPredAlu                 0      0.00%     18.70% # attempts to use FU when none available
system.cpu0.iq.fu_full::MemRead               1263395     66.73%     85.42% # attempts to use FU when none available
system.cpu0.iq.fu_full::MemWrite               276039     14.58%    100.00% # attempts to use FU when none available
system.cpu0.iq.fu_full::FloatMemRead                0      0.00%    100.00% # attempts to use FU when none available
system.cpu0.iq.fu_full::FloatMemWrite               2      0.00%    100.00% # attempts to use FU when none available
system.cpu0.iq.fu_full::IprAccess                   0      0.00%    100.00% # attempts to use FU when none available
system.cpu0.iq.fu_full::InstPrefetch                0      0.00%    100.00% # attempts to use FU when none available
system.cpu0.iq.int_alu_accesses            1296042794                       # Number of integer alu accesses
system.cpu0.iq.int_inst_queue_reads        4792208091                       # Number of integer instruction queue reads
system.cpu0.iq.int_inst_queue_wakeup_accesses   1280163536                       # Number of integer instruction queue wakeup accesses
system.cpu0.iq.int_inst_queue_writes       1389626313                       # Number of integer instruction queue writes
system.cpu0.iq.iqInstsAdded                1313353366                       # Number of instructions added to the IQ (excludes non-spec)
system.cpu0.iq.iqInstsIssued               1296255576                       # Number of instructions issued
system.cpu0.iq.iqNonSpecInstsAdded            7235564                       # Number of non-speculative instructions added to the IQ
system.cpu0.iq.iqSquashedInstsExamined       69025820                       # Number of squashed instructions iterated over during squash; mainly for profiling
system.cpu0.iq.iqSquashedInstsIssued           130301                       # Number of squashed instructions issued
system.cpu0.iq.iqSquashedNonSpecRemoved       4074917                       # Number of squashed non-spec instructions that were removed
system.cpu0.iq.iqSquashedOperandsExamined     41586976                       # Number of squashed operands that are examined and possibly removed from graph
system.cpu0.iq.issued_per_cycle::samples   2197673325                       # Number of insts issued each cycle
system.cpu0.iq.issued_per_cycle::mean        0.589831                       # Number of insts issued each cycle
system.cpu0.iq.issued_per_cycle::stdev       0.799777                       # Number of insts issued each cycle
system.cpu0.iq.issued_per_cycle::underflows            0      0.00%      0.00% # Number of insts issued each cycle
system.cpu0.iq.issued_per_cycle::0         1242201192     56.52%     56.52% # Number of insts issued each cycle
system.cpu0.iq.issued_per_cycle::1          686024249     31.22%     87.74% # Number of insts issued each cycle
system.cpu0.iq.issued_per_cycle::2          214536706      9.76%     97.50% # Number of insts issued each cycle
system.cpu0.iq.issued_per_cycle::3           43710603      1.99%     99.49% # Number of insts issued each cycle
system.cpu0.iq.issued_per_cycle::4            8296205      0.38%     99.87% # Number of insts issued each cycle
system.cpu0.iq.issued_per_cycle::5            1352176      0.06%     99.93% # Number of insts issued each cycle
system.cpu0.iq.issued_per_cycle::6             952763      0.04%     99.97% # Number of insts issued each cycle
system.cpu0.iq.issued_per_cycle::7             431620      0.02%     99.99% # Number of insts issued each cycle
system.cpu0.iq.issued_per_cycle::8             167811      0.01%    100.00% # Number of insts issued each cycle
system.cpu0.iq.issued_per_cycle::overflows            0      0.00%    100.00% # Number of insts issued each cycle
system.cpu0.iq.issued_per_cycle::min_value            0                       # Number of insts issued each cycle
system.cpu0.iq.issued_per_cycle::max_value            8                       # Number of insts issued each cycle
system.cpu0.iq.issued_per_cycle::total     2197673325                       # Number of insts issued each cycle
system.cpu0.iq.rate                          0.552315                       # Inst issue rate
system.cpu0.iq.vec_alu_accesses                     0                       # Number of vector alu accesses
system.cpu0.iq.vec_inst_queue_reads                 0                       # Number of vector instruction queue reads
system.cpu0.iq.vec_inst_queue_wakeup_accesses            0                       # Number of vector instruction queue wakeup accesses
system.cpu0.iq.vec_inst_queue_writes                0                       # Number of vector instruction queue writes
system.cpu0.itb.accesses                            0                       # DTB accesses
system.cpu0.itb.hits                                0                       # DTB hits
system.cpu0.itb.misses                              0                       # DTB misses
system.cpu0.itb.read_accesses                       0                       # DTB read accesses
system.cpu0.itb.read_hits                           0                       # DTB read hits
system.cpu0.itb.read_misses                         0                       # DTB read misses
system.cpu0.itb.write_accesses                      0                       # DTB write accesses
system.cpu0.itb.write_hits                          0                       # DTB write hits
system.cpu0.itb.write_misses                        0                       # DTB write misses
system.cpu0.memDep0.conflictingLoads         21026327                       # Number of conflicting loads.
system.cpu0.memDep0.conflictingStores         2713935                       # Number of conflicting stores.
system.cpu0.memDep0.insertedLoads           416626254                       # Number of loads inserted to the mem dependence unit.
system.cpu0.memDep0.insertedStores          152794997                       # Number of stores inserted to the mem dependence unit.
system.cpu0.misc_regfile_reads                   2071                       # number of misc regfile reads
system.cpu0.misc_regfile_writes                    22                       # number of misc regfile writes
system.cpu0.numCycles                      2346949330                       # number of cpu cycles simulated
system.cpu0.numWorkItemsCompleted                   0                       # number of work items this cpu completed
system.cpu0.numWorkItemsStarted                     0                       # number of work items this cpu started
system.cpu0.quiesceCycles                     7109775                       # Total number of cycles that CPU has spent quiesced or waiting for an interrupt
system.cpu0.rename.BlockCycles              218000545                       # Number of cycles rename is blocking
system.cpu0.rename.CommittedMaps            800536365                       # Number of HB maps that are committed
system.cpu0.rename.IQFullEvents               5824797                       # Number of times rename has blocked due to IQ full
system.cpu0.rename.IdleCycles               992302836                       # Number of cycles rename is idle
system.cpu0.rename.LQFullEvents              18373966                       # Number of times rename has blocked due to LQ full
system.cpu0.rename.ROBFullEvents                10399                       # Number of times rename has blocked due to ROB full
system.cpu0.rename.RenameLookups           1634708541                       # Number of register rename lookups that rename has made
system.cpu0.rename.RenamedInsts            1335104321                       # Number of instructions processed by rename
system.cpu0.rename.RenamedOperands          863507750                       # Number of destination operands rename has renamed
system.cpu0.rename.RunCycles                926212526                       # Number of cycles rename is running
system.cpu0.rename.SQFullEvents              26215988                       # Number of times rename has blocked due to SQ full
system.cpu0.rename.SquashCycles              10025575                       # Number of cycles rename is squashing
system.cpu0.rename.UnblockCycles             50971250                       # Number of cycles rename is unblocking
system.cpu0.rename.UndoneMaps                62971380                       # Number of HB maps that are undone due to squashing
system.cpu0.rename.fp_rename_lookups               44                       # Number of floating rename lookups
system.cpu0.rename.int_rename_lookups      1634708497                       # Number of integer rename lookups
system.cpu0.rename.serializeStallCycles        160593                       # count of cycles rename stalled for serializing inst
system.cpu0.rename.serializingInsts              6288                       # count of serializing insts renamed
system.cpu0.rename.skidInsts                 14356816                       # count of insts added to the skid buffer
system.cpu0.rename.tempSerializingInsts          6237                       # count of temporary serializing insts renamed
system.cpu0.rob.rob_reads                  3471448151                       # The number of ROB reads
system.cpu0.rob.rob_writes                 2656717743                       # The number of ROB writes
system.cpu0.timesIdled                       31249236                       # Number of times that the entire CPU went into an idle state and unscheduled itself
system.cpu0.workload.numSyscalls                 2038                       # Number of system calls
system.cpu1.branchPred.BTBCorrect                   0                       # Number of correct BTB predictions (this stat may not work properly.
system.cpu1.branchPred.BTBHitPct            85.026982                       # BTB Hit Percentage
system.cpu1.branchPred.BTBHits               12398592                       # Number of BTB hits
system.cpu1.branchPred.BTBLookups            14581950                       # Number of BTB lookups
system.cpu1.branchPred.RASInCorrect                 0                       # Number of incorrect RAS predictions.
system.cpu1.branchPred.condIncorrect          1809195                       # Number of conditional branches incorrect
system.cpu1.branchPred.condPredicted         18245932                       # Number of conditional branches predicted
system.cpu1.branchPred.indirectHits            667081                       # Number of indirect target hits.
system.cpu1.branchPred.indirectLookups         680181                       # Number of indirect predictor lookups.
system.cpu1.branchPred.indirectMisses           13100                       # Number of indirect misses.
system.cpu1.branchPred.lookups               21294793                       # Number of BP lookups
system.cpu1.branchPred.usedRAS                      0                       # Number of times the RAS was used to get a target.
system.cpu1.branchPredindirectMispredicted        41856                       # Number of mispredicted indirect branches.
system.cpu1.commit.amos                       1050249                       # Number of atomic instructions committed
system.cpu1.commit.branchMispredicts          1336908                       # The number of times a branch was mispredicted
system.cpu1.commit.branches                  16229494                       # Number of branches committed
system.cpu1.commit.bw_lim_events              2231744                       # number cycles where commit BW limit reached
system.cpu1.commit.commitNonSpecStalls        3151454                       # The number of times commit has been forced to stall to communicate backwards
system.cpu1.commit.commitSquashedInsts       11792742                       # The number of squashed insts skipped by commit
system.cpu1.commit.committedInsts            67684335                       # Number of instructions committed
system.cpu1.commit.committedOps              68734794                       # Number of ops (including micro ops) committed
system.cpu1.commit.committed_per_cycle::samples    309135431                       # Number of insts commited each cycle
system.cpu1.commit.committed_per_cycle::mean     0.222345                       # Number of insts commited each cycle
system.cpu1.commit.committed_per_cycle::stdev     0.942540                       # Number of insts commited each cycle
system.cpu1.commit.committed_per_cycle::underflows            0      0.00%      0.00% # Number of insts commited each cycle
system.cpu1.commit.committed_per_cycle::0    280682181     90.80%     90.80% # Number of insts commited each cycle
system.cpu1.commit.committed_per_cycle::1     14158003      4.58%     95.38% # Number of insts commited each cycle
system.cpu1.commit.committed_per_cycle::2      5335333      1.73%     97.10% # Number of insts commited each cycle
system.cpu1.commit.committed_per_cycle::3      4097533      1.33%     98.43% # Number of insts commited each cycle
system.cpu1.commit.committed_per_cycle::4       908167      0.29%     98.72% # Number of insts commited each cycle
system.cpu1.commit.committed_per_cycle::5       433725      0.14%     98.86% # Number of insts commited each cycle
system.cpu1.commit.committed_per_cycle::6      1062934      0.34%     99.21% # Number of insts commited each cycle
system.cpu1.commit.committed_per_cycle::7       225811      0.07%     99.28% # Number of insts commited each cycle
system.cpu1.commit.committed_per_cycle::8      2231744      0.72%    100.00% # Number of insts commited each cycle
system.cpu1.commit.committed_per_cycle::overflows            0      0.00%    100.00% # Number of insts commited each cycle
system.cpu1.commit.committed_per_cycle::min_value            0                       # Number of insts commited each cycle
system.cpu1.commit.committed_per_cycle::max_value            8                       # Number of insts commited each cycle
system.cpu1.commit.committed_per_cycle::total    309135431                       # Number of insts commited each cycle
system.cpu1.commit.fp_insts                        12                       # Number of committed floating point instructions.
system.cpu1.commit.function_calls             1075002                       # Number of function calls committed.
system.cpu1.commit.int_insts                 65719464                       # Number of committed integer instructions.
system.cpu1.commit.loads                     16752774                       # Number of loads committed
system.cpu1.commit.membars                    2100544                       # Number of memory barriers committed
system.cpu1.commit.op_class_0::No_OpClass      2100544      3.06%      3.06% # Class of committed instruction
system.cpu1.commit.op_class_0::IntAlu        43605335     63.44%     66.50% # Class of committed instruction
system.cpu1.commit.op_class_0::IntMult             44      0.00%     66.50% # Class of committed instruction
system.cpu1.commit.op_class_0::IntDiv              88      0.00%     66.50% # Class of committed instruction
system.cpu1.commit.op_class_0::FloatAdd             0      0.00%     66.50% # Class of committed instruction
system.cpu1.commit.op_class_0::FloatCmp             0      0.00%     66.50% # Class of committed instruction
system.cpu1.commit.op_class_0::FloatCvt             0      0.00%     66.50% # Class of committed instruction
system.cpu1.commit.op_class_0::FloatMult            0      0.00%     66.50% # Class of committed instruction
system.cpu1.commit.op_class_0::FloatMultAcc            0      0.00%     66.50% # Class of committed instruction
system.cpu1.commit.op_class_0::FloatDiv             0      0.00%     66.50% # Class of committed instruction
system.cpu1.commit.op_class_0::FloatMisc            0      0.00%     66.50% # Class of committed instruction
system.cpu1.commit.op_class_0::FloatSqrt            0      0.00%     66.50% # Class of committed instruction
system.cpu1.commit.op_class_0::SimdAdd              0      0.00%     66.50% # Class of committed instruction
system.cpu1.commit.op_class_0::SimdAddAcc            0      0.00%     66.50% # Class of committed instruction
system.cpu1.commit.op_class_0::SimdAlu              0      0.00%     66.50% # Class of committed instruction
system.cpu1.commit.op_class_0::SimdCmp              0      0.00%     66.50% # Class of committed instruction
system.cpu1.commit.op_class_0::SimdCvt              0      0.00%     66.50% # Class of committed instruction
system.cpu1.commit.op_class_0::SimdMisc             0      0.00%     66.50% # Class of committed instruction
system.cpu1.commit.op_class_0::SimdMult             0      0.00%     66.50% # Class of committed instruction
system.cpu1.commit.op_class_0::SimdMultAcc            0      0.00%     66.50% # Class of committed instruction
system.cpu1.commit.op_class_0::SimdShift            0      0.00%     66.50% # Class of committed instruction
system.cpu1.commit.op_class_0::SimdShiftAcc            0      0.00%     66.50% # Class of committed instruction
system.cpu1.commit.op_class_0::SimdDiv              0      0.00%     66.50% # Class of committed instruction
system.cpu1.commit.op_class_0::SimdSqrt             0      0.00%     66.50% # Class of committed instruction
system.cpu1.commit.op_class_0::SimdFloatAdd            0      0.00%     66.50% # Class of committed instruction
system.cpu1.commit.op_class_0::SimdFloatAlu            0      0.00%     66.50% # Class of committed instruction
system.cpu1.commit.op_class_0::SimdFloatCmp            0      0.00%     66.50% # Class of committed instruction
system.cpu1.commit.op_class_0::SimdFloatCvt            0      0.00%     66.50% # Class of committed instruction
system.cpu1.commit.op_class_0::SimdFloatDiv            0      0.00%     66.50% # Class of committed instruction
system.cpu1.commit.op_class_0::SimdFloatMisc            0      0.00%     66.50% # Class of committed instruction
system.cpu1.commit.op_class_0::SimdFloatMult            0      0.00%     66.50% # Class of committed instruction
system.cpu1.commit.op_class_0::SimdFloatMultAcc            0      0.00%     66.50% # Class of committed instruction
system.cpu1.commit.op_class_0::SimdFloatSqrt            0      0.00%     66.50% # Class of committed instruction
system.cpu1.commit.op_class_0::SimdReduceAdd            0      0.00%     66.50% # Class of committed instruction
system.cpu1.commit.op_class_0::SimdReduceAlu            0      0.00%     66.50% # Class of committed instruction
system.cpu1.commit.op_class_0::SimdReduceCmp            0      0.00%     66.50% # Class of committed instruction
system.cpu1.commit.op_class_0::SimdFloatReduceAdd            0      0.00%     66.50% # Class of committed instruction
system.cpu1.commit.op_class_0::SimdFloatReduceCmp            0      0.00%     66.50% # Class of committed instruction
system.cpu1.commit.op_class_0::SimdAes              0      0.00%     66.50% # Class of committed instruction
system.cpu1.commit.op_class_0::SimdAesMix            0      0.00%     66.50% # Class of committed instruction
system.cpu1.commit.op_class_0::SimdSha1Hash            0      0.00%     66.50% # Class of committed instruction
system.cpu1.commit.op_class_0::SimdSha1Hash2            0      0.00%     66.50% # Class of committed instruction
system.cpu1.commit.op_class_0::SimdSha256Hash            0      0.00%     66.50% # Class of committed instruction
system.cpu1.commit.op_class_0::SimdSha256Hash2            0      0.00%     66.50% # Class of committed instruction
system.cpu1.commit.op_class_0::SimdShaSigma2            0      0.00%     66.50% # Class of committed instruction
system.cpu1.commit.op_class_0::SimdShaSigma3            0      0.00%     66.50% # Class of committed instruction
system.cpu1.commit.op_class_0::SimdPredAlu            0      0.00%     66.50% # Class of committed instruction
system.cpu1.commit.op_class_0::MemRead       17803023     25.90%     92.40% # Class of committed instruction
system.cpu1.commit.op_class_0::MemWrite       5225748      7.60%    100.00% # Class of committed instruction
system.cpu1.commit.op_class_0::FloatMemRead            0      0.00%    100.00% # Class of committed instruction
system.cpu1.commit.op_class_0::FloatMemWrite           12      0.00%    100.00% # Class of committed instruction
system.cpu1.commit.op_class_0::IprAccess            0      0.00%    100.00% # Class of committed instruction
system.cpu1.commit.op_class_0::InstPrefetch            0      0.00%    100.00% # Class of committed instruction
system.cpu1.commit.op_class_0::total         68734794                       # Class of committed instruction
system.cpu1.commit.refs                      23028783                       # Number of memory references committed
system.cpu1.commit.swp_count                        0                       # Number of s/w prefetches committed
system.cpu1.commit.vec_insts                        0                       # Number of committed Vector instructions.
system.cpu1.committedInsts                   67684335                       # Number of Instructions Simulated
system.cpu1.committedOps                     68734794                       # Number of Ops (including micro ops) Simulated
system.cpu1.cpi                              4.618806                       # CPI: Cycles Per Instruction
system.cpu1.cpi_total                        4.618806                       # CPI: Total CPI of All Threads
system.cpu1.decode.BlockedCycles            251103587                       # Number of cycles decode is blocked
system.cpu1.decode.BranchMispred               504178                       # Number of times decode detected a branch misprediction
system.cpu1.decode.BranchResolved            11802138                       # Number of times decode resolved a branch
system.cpu1.decode.DecodedInsts              85064574                       # Number of instructions handled by decode
system.cpu1.decode.IdleCycles                16758405                       # Number of cycles decode is idle
system.cpu1.decode.RunCycles                 39538656                       # Number of cycles decode is running
system.cpu1.decode.SquashCycles               1338323                       # Number of cycles decode is squashing
system.cpu1.decode.SquashedInsts              1219853                       # Number of squashed instructions handled by decode
system.cpu1.decode.UnblockCycles              2769433                       # Number of cycles decode is unblocking
system.cpu1.dtb.accesses                            0                       # DTB accesses
system.cpu1.dtb.hits                                0                       # DTB hits
system.cpu1.dtb.misses                              0                       # DTB misses
system.cpu1.dtb.read_accesses                       0                       # DTB read accesses
system.cpu1.dtb.read_hits                           0                       # DTB read hits
system.cpu1.dtb.read_misses                         0                       # DTB read misses
system.cpu1.dtb.write_accesses                      0                       # DTB write accesses
system.cpu1.dtb.write_hits                          0                       # DTB write hits
system.cpu1.dtb.write_misses                        0                       # DTB write misses
system.cpu1.fetch.Branches                   21294793                       # Number of branches that fetch encountered
system.cpu1.fetch.CacheLines                 14355616                       # Number of cache lines fetched
system.cpu1.fetch.Cycles                    293885005                       # Number of cycles fetch has run and was not squashing or blocked
system.cpu1.fetch.IcacheSquashes               172238                       # Number of outstanding Icache misses that were squashed
system.cpu1.fetch.IcacheWaitRetryStallCycles           12                       # Number of stall cycles due to full MSHR
system.cpu1.fetch.Insts                      88701176                       # Number of instructions fetch has processed
system.cpu1.fetch.MiscStallCycles                   2                       # Number of cycles fetch has spent waiting on interrupts, or bad addresses, or out of MSHRs
system.cpu1.fetch.SquashCycles                3621220                       # Number of cycles fetch has spent squashing
system.cpu1.fetch.branchRate                 0.068117                       # Number of branch fetches per cycle
system.cpu1.fetch.icacheStallCycles          15812775                       # Number of cycles fetch is stalled on an Icache miss
system.cpu1.fetch.predictedBranches          13065673                       # Number of branches that fetch has predicted taken
system.cpu1.fetch.rate                       0.283734                       # Number of inst fetches per cycle
system.cpu1.fetch.rateDist::samples         311508404                       # Number of instructions fetched each cycle (Total)
system.cpu1.fetch.rateDist::mean             0.288122                       # Number of instructions fetched each cycle (Total)
system.cpu1.fetch.rateDist::stdev            0.718284                       # Number of instructions fetched each cycle (Total)
system.cpu1.fetch.rateDist::underflows              0      0.00%      0.00% # Number of instructions fetched each cycle (Total)
system.cpu1.fetch.rateDist::0               254639660     81.74%     81.74% # Number of instructions fetched each cycle (Total)
system.cpu1.fetch.rateDist::1                36011986     11.56%     93.30% # Number of instructions fetched each cycle (Total)
system.cpu1.fetch.rateDist::2                11570435      3.71%     97.02% # Number of instructions fetched each cycle (Total)
system.cpu1.fetch.rateDist::3                 7238020      2.32%     99.34% # Number of instructions fetched each cycle (Total)
system.cpu1.fetch.rateDist::4                 1418245      0.46%     99.80% # Number of instructions fetched each cycle (Total)
system.cpu1.fetch.rateDist::5                  572526      0.18%     99.98% # Number of instructions fetched each cycle (Total)
system.cpu1.fetch.rateDist::6                   54416      0.02%    100.00% # Number of instructions fetched each cycle (Total)
system.cpu1.fetch.rateDist::7                    1492      0.00%    100.00% # Number of instructions fetched each cycle (Total)
system.cpu1.fetch.rateDist::8                    1624      0.00%    100.00% # Number of instructions fetched each cycle (Total)
system.cpu1.fetch.rateDist::overflows               0      0.00%    100.00% # Number of instructions fetched each cycle (Total)
system.cpu1.fetch.rateDist::min_value               0                       # Number of instructions fetched each cycle (Total)
system.cpu1.fetch.rateDist::max_value               8                       # Number of instructions fetched each cycle (Total)
system.cpu1.fetch.rateDist::total           311508404                       # Number of instructions fetched each cycle (Total)
system.cpu1.fp_regfile_reads                       12                       # number of floating regfile reads
system.cpu1.idleCycles                        1112378                       # Total number of cycles that the CPU has spent unscheduled due to idling
system.cpu1.iew.branchMispredicts             1409702                       # Number of branch mispredicts detected at execute
system.cpu1.iew.exec_branches                17938233                       # Number of branches executed
system.cpu1.iew.exec_nop                            0                       # number of nop insts executed
system.cpu1.iew.exec_rate                    0.245937                       # Inst execution rate
system.cpu1.iew.exec_refs                    26030477                       # number of memory reference insts executed
system.cpu1.iew.exec_stores                   6608015                       # Number of stores executed
system.cpu1.iew.exec_swp                            0                       # number of swp insts executed
system.cpu1.iew.iewBlockCycles              205203446                       # Number of cycles IEW is blocking
system.cpu1.iew.iewDispLoadInsts             19867278                       # Number of dispatched load instructions
system.cpu1.iew.iewDispNonSpecInsts           1051136                       # Number of dispatched non-speculative instructions
system.cpu1.iew.iewDispSquashedInsts          1159084                       # Number of squashed instructions skipped by dispatch
system.cpu1.iew.iewDispStoreInsts             6926046                       # Number of dispatched store instructions
system.cpu1.iew.iewDispatchedInsts           80498647                       # Number of instructions dispatched to IQ
system.cpu1.iew.iewExecLoadInsts             19422462                       # Number of load instructions executed
system.cpu1.iew.iewExecSquashedInsts          1327023                       # Number of squashed instructions skipped in execute
system.cpu1.iew.iewExecutedInsts             76884872                       # Number of executed instructions
system.cpu1.iew.iewIQFullEvents               1015767                       # Number of times the IQ has become full, causing a stall
system.cpu1.iew.iewIdleCycles                       0                       # Number of cycles IEW is idle
system.cpu1.iew.iewLSQFullEvents              7524560                       # Number of times the LSQ has become full, causing a stall
system.cpu1.iew.iewSquashCycles               1338323                       # Number of cycles IEW is squashing
system.cpu1.iew.iewUnblockCycles              9734512                       # Number of cycles IEW is unblocking
system.cpu1.iew.lsq.thread0.blockedLoads            0                       # Number of blocked loads due to partial load-store forwarding
system.cpu1.iew.lsq.thread0.cacheBlocked        94795                       # Number of times an access to memory failed due to the cache being blocked
system.cpu1.iew.lsq.thread0.forwLoads          683212                       # Number of loads that had data forwarded from stores
system.cpu1.iew.lsq.thread0.ignoredResponses        16617                       # Number of memory responses ignored because the instruction is squashed
system.cpu1.iew.lsq.thread0.invAddrLoads            0                       # Number of loads ignored due to an invalid address
system.cpu1.iew.lsq.thread0.invAddrSwpfs            0                       # Number of software prefetches ignored due to an invalid address
system.cpu1.iew.lsq.thread0.memOrderViolation         2039                       # Number of memory ordering violations
system.cpu1.iew.lsq.thread0.rescheduledLoads        10466                       # Number of loads that were rescheduled
system.cpu1.iew.lsq.thread0.squashedLoads      3114504                       # Number of loads squashed
system.cpu1.iew.lsq.thread0.squashedStores       650037                       # Number of stores squashed
system.cpu1.iew.memOrderViolationEvents          2039                       # Number of memory order violations
system.cpu1.iew.predictedNotTakenIncorrect       409257                       # Number of branches that were predicted not taken incorrectly
system.cpu1.iew.predictedTakenIncorrect       1000445                       # Number of branches that were predicted taken incorrectly
system.cpu1.iew.wb_consumers                 43467198                       # num instructions consuming a value
system.cpu1.iew.wb_count                     75735148                       # cumulative count of insts written-back
system.cpu1.iew.wb_fanout                    0.829126                       # average fanout of values written-back
system.cpu1.iew.wb_producers                 36039805                       # num instructions producing a value
system.cpu1.iew.wb_rate                      0.242259                       # insts written-back per cycle
system.cpu1.iew.wb_sent                      75785211                       # cumulative count of insts sent to commit
system.cpu1.int_regfile_reads                97681096                       # number of integer regfile reads
system.cpu1.int_regfile_writes               50810402                       # number of integer regfile writes
system.cpu1.ipc                              0.216506                       # IPC: Instructions Per Cycle
system.cpu1.ipc_total                        0.216506                       # IPC: Total IPC of All Threads
system.cpu1.iq.FU_type_0::No_OpClass          2100783      2.69%      2.69% # Type of FU issued
system.cpu1.iq.FU_type_0::IntAlu             49663359     63.50%     66.18% # Type of FU issued
system.cpu1.iq.FU_type_0::IntMult                  55      0.00%     66.18% # Type of FU issued
system.cpu1.iq.FU_type_0::IntDiv                   88      0.00%     66.18% # Type of FU issued
system.cpu1.iq.FU_type_0::FloatAdd                  0      0.00%     66.18% # Type of FU issued
system.cpu1.iq.FU_type_0::FloatCmp                  0      0.00%     66.18% # Type of FU issued
system.cpu1.iq.FU_type_0::FloatCvt                  0      0.00%     66.18% # Type of FU issued
system.cpu1.iq.FU_type_0::FloatMult                 0      0.00%     66.18% # Type of FU issued
system.cpu1.iq.FU_type_0::FloatMultAcc              0      0.00%     66.18% # Type of FU issued
system.cpu1.iq.FU_type_0::FloatDiv                  0      0.00%     66.18% # Type of FU issued
system.cpu1.iq.FU_type_0::FloatMisc                 0      0.00%     66.18% # Type of FU issued
system.cpu1.iq.FU_type_0::FloatSqrt                 0      0.00%     66.18% # Type of FU issued
system.cpu1.iq.FU_type_0::SimdAdd                   0      0.00%     66.18% # Type of FU issued
system.cpu1.iq.FU_type_0::SimdAddAcc                0      0.00%     66.18% # Type of FU issued
system.cpu1.iq.FU_type_0::SimdAlu                   0      0.00%     66.18% # Type of FU issued
system.cpu1.iq.FU_type_0::SimdCmp                   0      0.00%     66.18% # Type of FU issued
system.cpu1.iq.FU_type_0::SimdCvt                   0      0.00%     66.18% # Type of FU issued
system.cpu1.iq.FU_type_0::SimdMisc                  0      0.00%     66.18% # Type of FU issued
system.cpu1.iq.FU_type_0::SimdMult                  0      0.00%     66.18% # Type of FU issued
system.cpu1.iq.FU_type_0::SimdMultAcc               0      0.00%     66.18% # Type of FU issued
system.cpu1.iq.FU_type_0::SimdShift                 0      0.00%     66.18% # Type of FU issued
system.cpu1.iq.FU_type_0::SimdShiftAcc              0      0.00%     66.18% # Type of FU issued
system.cpu1.iq.FU_type_0::SimdDiv                   0      0.00%     66.18% # Type of FU issued
system.cpu1.iq.FU_type_0::SimdSqrt                  0      0.00%     66.18% # Type of FU issued
system.cpu1.iq.FU_type_0::SimdFloatAdd              0      0.00%     66.18% # Type of FU issued
system.cpu1.iq.FU_type_0::SimdFloatAlu              0      0.00%     66.18% # Type of FU issued
system.cpu1.iq.FU_type_0::SimdFloatCmp              0      0.00%     66.18% # Type of FU issued
system.cpu1.iq.FU_type_0::SimdFloatCvt              0      0.00%     66.18% # Type of FU issued
system.cpu1.iq.FU_type_0::SimdFloatDiv              0      0.00%     66.18% # Type of FU issued
system.cpu1.iq.FU_type_0::SimdFloatMisc             0      0.00%     66.18% # Type of FU issued
system.cpu1.iq.FU_type_0::SimdFloatMult             0      0.00%     66.18% # Type of FU issued
system.cpu1.iq.FU_type_0::SimdFloatMultAcc            0      0.00%     66.18% # Type of FU issued
system.cpu1.iq.FU_type_0::SimdFloatSqrt             0      0.00%     66.18% # Type of FU issued
system.cpu1.iq.FU_type_0::SimdReduceAdd             0      0.00%     66.18% # Type of FU issued
system.cpu1.iq.FU_type_0::SimdReduceAlu             0      0.00%     66.18% # Type of FU issued
system.cpu1.iq.FU_type_0::SimdReduceCmp             0      0.00%     66.18% # Type of FU issued
system.cpu1.iq.FU_type_0::SimdFloatReduceAdd            0      0.00%     66.18% # Type of FU issued
system.cpu1.iq.FU_type_0::SimdFloatReduceCmp            0      0.00%     66.18% # Type of FU issued
system.cpu1.iq.FU_type_0::SimdAes                   0      0.00%     66.18% # Type of FU issued
system.cpu1.iq.FU_type_0::SimdAesMix                0      0.00%     66.18% # Type of FU issued
system.cpu1.iq.FU_type_0::SimdSha1Hash              0      0.00%     66.18% # Type of FU issued
system.cpu1.iq.FU_type_0::SimdSha1Hash2             0      0.00%     66.18% # Type of FU issued
system.cpu1.iq.FU_type_0::SimdSha256Hash            0      0.00%     66.18% # Type of FU issued
system.cpu1.iq.FU_type_0::SimdSha256Hash2            0      0.00%     66.18% # Type of FU issued
system.cpu1.iq.FU_type_0::SimdShaSigma2             0      0.00%     66.18% # Type of FU issued
system.cpu1.iq.FU_type_0::SimdShaSigma3             0      0.00%     66.18% # Type of FU issued
system.cpu1.iq.FU_type_0::SimdPredAlu               0      0.00%     66.18% # Type of FU issued
system.cpu1.iq.FU_type_0::MemRead            20830738     26.63%     92.82% # Type of FU issued
system.cpu1.iq.FU_type_0::MemWrite            5616860      7.18%    100.00% # Type of FU issued
system.cpu1.iq.FU_type_0::FloatMemRead              0      0.00%    100.00% # Type of FU issued
system.cpu1.iq.FU_type_0::FloatMemWrite            12      0.00%    100.00% # Type of FU issued
system.cpu1.iq.FU_type_0::IprAccess                 0      0.00%    100.00% # Type of FU issued
system.cpu1.iq.FU_type_0::InstPrefetch              0      0.00%    100.00% # Type of FU issued
system.cpu1.iq.FU_type_0::total              78211895                       # Type of FU issued
system.cpu1.iq.fp_alu_accesses                     14                       # Number of floating point alu accesses
system.cpu1.iq.fp_inst_queue_reads                 26                       # Number of floating instruction queue reads
system.cpu1.iq.fp_inst_queue_wakeup_accesses           12                       # Number of floating instruction queue wakeup accesses
system.cpu1.iq.fp_inst_queue_writes                12                       # Number of floating instruction queue writes
system.cpu1.iq.fu_busy_cnt                    1618613                       # FU busy when requested
system.cpu1.iq.fu_busy_rate                  0.020695                       # FU busy rate (busy events/executed inst)
system.cpu1.iq.fu_full::No_OpClass                  0      0.00%      0.00% # attempts to use FU when none available
system.cpu1.iq.fu_full::IntAlu                 396052     24.47%     24.47% # attempts to use FU when none available
system.cpu1.iq.fu_full::IntMult                     0      0.00%     24.47% # attempts to use FU when none available
system.cpu1.iq.fu_full::IntDiv                      0      0.00%     24.47% # attempts to use FU when none available
system.cpu1.iq.fu_full::FloatAdd                    0      0.00%     24.47% # attempts to use FU when none available
system.cpu1.iq.fu_full::FloatCmp                    0      0.00%     24.47% # attempts to use FU when none available
system.cpu1.iq.fu_full::FloatCvt                    0      0.00%     24.47% # attempts to use FU when none available
system.cpu1.iq.fu_full::FloatMult                   0      0.00%     24.47% # attempts to use FU when none available
system.cpu1.iq.fu_full::FloatMultAcc                0      0.00%     24.47% # attempts to use FU when none available
system.cpu1.iq.fu_full::FloatDiv                    0      0.00%     24.47% # attempts to use FU when none available
system.cpu1.iq.fu_full::FloatMisc                   0      0.00%     24.47% # attempts to use FU when none available
system.cpu1.iq.fu_full::FloatSqrt                   0      0.00%     24.47% # attempts to use FU when none available
system.cpu1.iq.fu_full::SimdAdd                     0      0.00%     24.47% # attempts to use FU when none available
system.cpu1.iq.fu_full::SimdAddAcc                  0      0.00%     24.47% # attempts to use FU when none available
system.cpu1.iq.fu_full::SimdAlu                     0      0.00%     24.47% # attempts to use FU when none available
system.cpu1.iq.fu_full::SimdCmp                     0      0.00%     24.47% # attempts to use FU when none available
system.cpu1.iq.fu_full::SimdCvt                     0      0.00%     24.47% # attempts to use FU when none available
system.cpu1.iq.fu_full::SimdMisc                    0      0.00%     24.47% # attempts to use FU when none available
system.cpu1.iq.fu_full::SimdMult                    0      0.00%     24.47% # attempts to use FU when none available
system.cpu1.iq.fu_full::SimdMultAcc                 0      0.00%     24.47% # attempts to use FU when none available
system.cpu1.iq.fu_full::SimdShift                   0      0.00%     24.47% # attempts to use FU when none available
system.cpu1.iq.fu_full::SimdShiftAcc                0      0.00%     24.47% # attempts to use FU when none available
system.cpu1.iq.fu_full::SimdDiv                     0      0.00%     24.47% # attempts to use FU when none available
system.cpu1.iq.fu_full::SimdSqrt                    0      0.00%     24.47% # attempts to use FU when none available
system.cpu1.iq.fu_full::SimdFloatAdd                0      0.00%     24.47% # attempts to use FU when none available
system.cpu1.iq.fu_full::SimdFloatAlu                0      0.00%     24.47% # attempts to use FU when none available
system.cpu1.iq.fu_full::SimdFloatCmp                0      0.00%     24.47% # attempts to use FU when none available
system.cpu1.iq.fu_full::SimdFloatCvt                0      0.00%     24.47% # attempts to use FU when none available
system.cpu1.iq.fu_full::SimdFloatDiv                0      0.00%     24.47% # attempts to use FU when none available
system.cpu1.iq.fu_full::SimdFloatMisc               0      0.00%     24.47% # attempts to use FU when none available
system.cpu1.iq.fu_full::SimdFloatMult               0      0.00%     24.47% # attempts to use FU when none available
system.cpu1.iq.fu_full::SimdFloatMultAcc            0      0.00%     24.47% # attempts to use FU when none available
system.cpu1.iq.fu_full::SimdFloatSqrt               0      0.00%     24.47% # attempts to use FU when none available
system.cpu1.iq.fu_full::SimdReduceAdd               0      0.00%     24.47% # attempts to use FU when none available
system.cpu1.iq.fu_full::SimdReduceAlu               0      0.00%     24.47% # attempts to use FU when none available
system.cpu1.iq.fu_full::SimdReduceCmp               0      0.00%     24.47% # attempts to use FU when none available
system.cpu1.iq.fu_full::SimdFloatReduceAdd            0      0.00%     24.47% # attempts to use FU when none available
system.cpu1.iq.fu_full::SimdFloatReduceCmp            0      0.00%     24.47% # attempts to use FU when none available
system.cpu1.iq.fu_full::SimdAes                     0      0.00%     24.47% # attempts to use FU when none available
system.cpu1.iq.fu_full::SimdAesMix                  0      0.00%     24.47% # attempts to use FU when none available
system.cpu1.iq.fu_full::SimdSha1Hash                0      0.00%     24.47% # attempts to use FU when none available
system.cpu1.iq.fu_full::SimdSha1Hash2               0      0.00%     24.47% # attempts to use FU when none available
system.cpu1.iq.fu_full::SimdSha256Hash              0      0.00%     24.47% # attempts to use FU when none available
system.cpu1.iq.fu_full::SimdSha256Hash2             0      0.00%     24.47% # attempts to use FU when none available
system.cpu1.iq.fu_full::SimdShaSigma2               0      0.00%     24.47% # attempts to use FU when none available
system.cpu1.iq.fu_full::SimdShaSigma3               0      0.00%     24.47% # attempts to use FU when none available
system.cpu1.iq.fu_full::SimdPredAlu                 0      0.00%     24.47% # attempts to use FU when none available
system.cpu1.iq.fu_full::MemRead                961842     59.42%     83.89% # attempts to use FU when none available
[...]
system.cpu1.dcache.WriteReq_mshr_miss_rate::total     0.038793                       # mshr miss rate for WriteReq accesses
system.cpu1.dcache.WriteReq_avg_mshr_miss_latency::.cpu1.data 125770.299276                       # average WriteReq mshr miss latency
system.cpu1.dcache.WriteReq_avg_mshr_miss_latency::total 125770.299276                       # average WriteReq mshr miss latency
system.cpu1.dcache.LoadLockedReq_hits::.cpu1.data      1446670                       # number of LoadLockedReq hits
system.cpu1.dcache.LoadLockedReq_hits::total      1446670                       # number of LoadLockedReq hits
system.cpu1.dcache.LoadLockedReq_misses::.cpu1.data         3818                       # number of LoadLockedReq misses
system.cpu1.dcache.LoadLockedReq_misses::total         3818                       # number of LoadLockedReq misses
system.cpu1.dcache.LoadLockedReq_miss_latency::.cpu1.data     78592000                       # number of LoadLockedReq miss cycles
system.cpu1.dcache.LoadLockedReq_miss_latency::total     78592000                       # number of LoadLockedReq miss cycles
system.cpu1.dcache.LoadLockedReq_accesses::.cpu1.data      1450488                       # number of LoadLockedReq accesses(hits+misses)
system.cpu1.dcache.LoadLockedReq_accesses::total      1450488                       # number of LoadLockedReq accesses(hits+misses)
system.cpu1.dcache.LoadLockedReq_miss_rate::.cpu1.data     0.002632                       # miss rate for LoadLockedReq accesses
system.cpu1.dcache.LoadLockedReq_miss_rate::total     0.002632                       # miss rate for LoadLockedReq accesses
system.cpu1.dcache.LoadLockedReq_avg_miss_latency::.cpu1.data 20584.599267                       # average LoadLockedReq miss latency
system.cpu1.dcache.LoadLockedReq_avg_miss_latency::total 20584.599267                       # average LoadLockedReq miss latency
system.cpu1.dcache.LoadLockedReq_mshr_hits::.cpu1.data          377                       # number of LoadLockedReq MSHR hits
system.cpu1.dcache.LoadLockedReq_mshr_hits::total          377                       # number of LoadLockedReq MSHR hits
system.cpu1.dcache.LoadLockedReq_mshr_misses::.cpu1.data         3441                       # number of LoadLockedReq MSHR misses
system.cpu1.dcache.LoadLockedReq_mshr_misses::total         3441                       # number of LoadLockedReq MSHR misses
system.cpu1.dcache.LoadLockedReq_mshr_miss_latency::.cpu1.data     67121500                       # number of LoadLockedReq MSHR miss cycles
system.cpu1.dcache.LoadLockedReq_mshr_miss_latency::total     67121500                       # number of LoadLockedReq MSHR miss cycles
system.cpu1.dcache.LoadLockedReq_mshr_miss_rate::.cpu1.data     0.002372                       # mshr miss rate for LoadLockedReq accesses
system.cpu1.dcache.LoadLockedReq_mshr_miss_rate::total     0.002372                       # mshr miss rate for LoadLockedReq accesses
system.cpu1.dcache.LoadLockedReq_avg_mshr_miss_latency::.cpu1.data 19506.393490                       # average LoadLockedReq mshr miss latency
system.cpu1.dcache.LoadLockedReq_avg_mshr_miss_latency::total 19506.393490                       # average LoadLockedReq mshr miss latency
system.cpu1.dcache.StoreCondReq_hits::.cpu1.data      1448318                       # number of StoreCondReq hits
system.cpu1.dcache.StoreCondReq_hits::total      1448318                       # number of StoreCondReq hits
system.cpu1.dcache.StoreCondReq_misses::.cpu1.data         1723                       # number of StoreCondReq misses
system.cpu1.dcache.StoreCondReq_misses::total         1723                       # number of StoreCondReq misses
system.cpu1.dcache.StoreCondReq_miss_latency::.cpu1.data     30319500                       # number of StoreCondReq miss cycles
system.cpu1.dcache.StoreCondReq_miss_latency::total     30319500                       # number of StoreCondReq miss cycles
system.cpu1.dcache.StoreCondReq_accesses::.cpu1.data      1450041                       # number of StoreCondReq accesses(hits+misses)
system.cpu1.dcache.StoreCondReq_accesses::total      1450041                       # number of StoreCondReq accesses(hits+misses)
system.cpu1.dcache.StoreCondReq_miss_rate::.cpu1.data     0.001188                       # miss rate for StoreCondReq accesses
system.cpu1.dcache.StoreCondReq_miss_rate::total     0.001188                       # miss rate for StoreCondReq accesses
system.cpu1.dcache.StoreCondReq_avg_miss_latency::.cpu1.data 17596.923970                       # average StoreCondReq miss latency
system.cpu1.dcache.StoreCondReq_avg_miss_latency::total 17596.923970                       # average StoreCondReq miss latency
system.cpu1.dcache.StoreCondReq_mshr_misses::.cpu1.data         1704                       # number of StoreCondReq MSHR misses
system.cpu1.dcache.StoreCondReq_mshr_misses::total         1704                       # number of StoreCondReq MSHR misses
system.cpu1.dcache.StoreCondReq_mshr_miss_latency::.cpu1.data     28689500                       # number of StoreCondReq MSHR miss cycles
system.cpu1.dcache.StoreCondReq_mshr_miss_latency::total     28689500                       # number of StoreCondReq MSHR miss cycles
system.cpu1.dcache.StoreCondReq_mshr_miss_rate::.cpu1.data     0.001175                       # mshr miss rate for StoreCondReq accesses
system.cpu1.dcache.StoreCondReq_mshr_miss_rate::total     0.001175                       # mshr miss rate for StoreCondReq accesses
system.cpu1.dcache.StoreCondReq_avg_mshr_miss_latency::.cpu1.data 16836.561033                       # average StoreCondReq mshr miss latency
system.cpu1.dcache.StoreCondReq_avg_mshr_miss_latency::total 16836.561033                       # average StoreCondReq mshr miss latency
system.cpu1.dcache.StoreCondFailReq_miss_latency::.cpu1.data       900500                       # number of StoreCondFailReq miss cycles
system.cpu1.dcache.StoreCondFailReq_miss_latency::total       900500                       # number of StoreCondFailReq miss cycles
system.cpu1.dcache.StoreCondFailReq_avg_miss_latency::.cpu1.data          inf                       # average StoreCondFailReq miss latency
system.cpu1.dcache.StoreCondFailReq_avg_miss_latency::total          inf                       # average StoreCondFailReq miss latency
system.cpu1.dcache.StoreCondFailReq_mshr_miss_latency::.cpu1.data       826500                       # number of StoreCondFailReq MSHR miss cycles
system.cpu1.dcache.StoreCondFailReq_mshr_miss_latency::total       826500                       # number of StoreCondFailReq MSHR miss cycles
system.cpu1.dcache.StoreCondFailReq_avg_mshr_miss_latency::.cpu1.data          inf                       # average StoreCondFailReq mshr miss latency
system.cpu1.dcache.StoreCondFailReq_avg_mshr_miss_latency::total          inf                       # average StoreCondFailReq mshr miss latency
system.cpu1.dcache.SwapReq_hits::.cpu1.data          357                       # number of SwapReq hits
system.cpu1.dcache.SwapReq_hits::total            357                       # number of SwapReq hits
system.cpu1.dcache.SwapReq_misses::.cpu1.data         1342                       # number of SwapReq misses
system.cpu1.dcache.SwapReq_misses::total         1342                       # number of SwapReq misses
system.cpu1.dcache.SwapReq_miss_latency::.cpu1.data     81154499                       # number of SwapReq miss cycles
system.cpu1.dcache.SwapReq_miss_latency::total     81154499                       # number of SwapReq miss cycles
system.cpu1.dcache.SwapReq_accesses::.cpu1.data         1699                       # number of SwapReq accesses(hits+misses)
system.cpu1.dcache.SwapReq_accesses::total         1699                       # number of SwapReq accesses(hits+misses)
system.cpu1.dcache.SwapReq_miss_rate::.cpu1.data     0.789876                       # miss rate for SwapReq accesses
system.cpu1.dcache.SwapReq_miss_rate::total     0.789876                       # miss rate for SwapReq accesses
system.cpu1.dcache.SwapReq_avg_miss_latency::.cpu1.data 60472.801043                       # average SwapReq miss latency
system.cpu1.dcache.SwapReq_avg_miss_latency::total 60472.801043                       # average SwapReq miss latency
system.cpu1.dcache.SwapReq_mshr_misses::.cpu1.data         1342                       # number of SwapReq MSHR misses
system.cpu1.dcache.SwapReq_mshr_misses::total         1342                       # number of SwapReq MSHR misses
system.cpu1.dcache.SwapReq_mshr_miss_latency::.cpu1.data     79812499                       # number of SwapReq MSHR miss cycles
system.cpu1.dcache.SwapReq_mshr_miss_latency::total     79812499                       # number of SwapReq MSHR miss cycles
system.cpu1.dcache.SwapReq_mshr_miss_rate::.cpu1.data     0.789876                       # mshr miss rate for SwapReq accesses
system.cpu1.dcache.SwapReq_mshr_miss_rate::total     0.789876                       # mshr miss rate for SwapReq accesses
system.cpu1.dcache.SwapReq_avg_mshr_miss_latency::.cpu1.data 59472.801043                       # average SwapReq mshr miss latency
system.cpu1.dcache.SwapReq_avg_mshr_miss_latency::total 59472.801043                       # average SwapReq mshr miss latency
system.cpu1.dcache.tags.pwrStateResidencyTicks::UNDEFINED 635816335000                       # Cumulative time (in ticks) in various power states
system.cpu1.dcache.tags.tagsinuse           31.949512                       # Cycle average of tags in use
system.cpu1.dcache.tags.total_refs           93381402                       # Total number of references to valid blocks.
system.cpu1.dcache.tags.sampled_refs          7950625                       # Sample count of references to valid blocks.
system.cpu1.dcache.tags.avg_refs            11.745165                       # Average number of references to valid blocks.
system.cpu1.dcache.tags.warmup_cycle                0                       # Cycle when the warmup percentage was hit.
system.cpu1.dcache.tags.occ_blocks::.cpu1.data    31.949512                       # Average occupied blocks per requestor
system.cpu1.dcache.tags.occ_percent::.cpu1.data     0.998422                       # Average percentage of cache occupancy
system.cpu1.dcache.tags.occ_percent::total     0.998422                       # Average percentage of cache occupancy
system.cpu1.dcache.tags.occ_task_id_blocks::1024           28                       # Occupied blocks per task id
system.cpu1.dcache.tags.age_task_id_blocks_1024::2           28                       # Occupied blocks per task id
system.cpu1.dcache.tags.occ_task_id_percent::1024     0.875000                       # Percentage of cache occupancy per task id
system.cpu1.dcache.tags.tag_accesses        214227885                       # Number of tag accesses
system.cpu1.dcache.tags.data_accesses       214227885                       # Number of data accesses
system.cpu_clk_domain.clock                       500                       # Clock period in ticks
system.tol2bus.pwrStateResidencyTicks::UNDEFINED 635816335000                       # Cumulative time (in ticks) in various power states
system.tol2bus.trans_dist::ReadResp          30602757                       # Transaction distribution
system.tol2bus.trans_dist::ReadRespWithInvalidate            3                       # Transaction distribution
system.tol2bus.trans_dist::WritebackDirty     10633366                       # Transaction distribution
system.tol2bus.trans_dist::WritebackClean     25599240                       # Transaction distribution
system.tol2bus.trans_dist::CleanEvict        48017137                       # Transaction distribution
system.tol2bus.trans_dist::HardPFReq          3154583                       # Transaction distribution
system.tol2bus.trans_dist::HardPFResp              10                       # Transaction distribution
system.tol2bus.trans_dist::UpgradeReq           23593                       # Transaction distribution
system.tol2bus.trans_dist::SCUpgradeReq          6299                       # Transaction distribution
system.tol2bus.trans_dist::UpgradeResp          29892                       # Transaction distribution
system.tol2bus.trans_dist::SCUpgradeFailReq          207                       # Transaction distribution
system.tol2bus.trans_dist::UpgradeFailResp          207                       # Transaction distribution
system.tol2bus.trans_dist::ReadExReq           500361                       # Transaction distribution
system.tol2bus.trans_dist::ReadExResp          500361                       # Transaction distribution
system.tol2bus.trans_dist::ReadCleanReq        421319                       # Transaction distribution
system.tol2bus.trans_dist::ReadSharedReq     30181442                       # Transaction distribution
system.tol2bus.trans_dist::InvalidateReq          561                       # Transaction distribution
system.tol2bus.trans_dist::InvalidateResp          561                       # Transaction distribution
system.tol2bus.pkt_count_system.cpu0.icache.mem_side::system.l2.cpu_side      1210841                       # Packet count per connected master and slave (bytes)
system.tol2bus.pkt_count_system.cpu0.dcache.mem_side::system.l2.cpu_side     28766883                       # Packet count per connected master and slave (bytes)
system.tol2bus.pkt_count_system.cpu1.icache.mem_side::system.l2.cpu_side        17898                       # Packet count per connected master and slave (bytes)
system.tol2bus.pkt_count_system.cpu1.dcache.mem_side::system.l2.cpu_side     23856541                       # Packet count per connected master and slave (bytes)
system.tol2bus.pkt_count_system.cpu2.icache.mem_side::system.l2.cpu_side        17577                       # Packet count per connected master and slave (bytes)
system.tol2bus.pkt_count_system.cpu2.dcache.mem_side::system.l2.cpu_side     20798307                       # Packet count per connected master and slave (bytes)
system.tol2bus.pkt_count_system.cpu3.icache.mem_side::system.l2.cpu_side        17634                       # Packet count per connected master and slave (bytes)
system.tol2bus.pkt_count_system.cpu3.dcache.mem_side::system.l2.cpu_side     18609047                       # Packet count per connected master and slave (bytes)
system.tol2bus.pkt_count::total              93294728                       # Packet count per connected master and slave (bytes)
system.tol2bus.pkt_size_system.cpu0.icache.mem_side::system.l2.cpu_side     51662400                       # Cumulative packet size per connected master and slave (bytes)
system.tol2bus.pkt_size_system.cpu0.dcache.mem_side::system.l2.cpu_side   1226386496                       # Cumulative packet size per connected master and slave (bytes)
system.tol2bus.pkt_size_system.cpu1.icache.mem_side::system.l2.cpu_side       763648                       # Cumulative packet size per connected master and slave (bytes)
system.tol2bus.pkt_size_system.cpu1.dcache.mem_side::system.l2.cpu_side   1016817024                       # Cumulative packet size per connected master and slave (bytes)
system.tol2bus.pkt_size_system.cpu2.icache.mem_side::system.l2.cpu_side       749952                       # Cumulative packet size per connected master and slave (bytes)
system.tol2bus.pkt_size_system.cpu2.dcache.mem_side::system.l2.cpu_side    886436800                       # Cumulative packet size per connected master and slave (bytes)
system.tol2bus.pkt_size_system.cpu3.icache.mem_side::system.l2.cpu_side       752384                       # Cumulative packet size per connected master and slave (bytes)
system.tol2bus.pkt_size_system.cpu3.dcache.mem_side::system.l2.cpu_side    793070848                       # Cumulative packet size per connected master and slave (bytes)
system.tol2bus.pkt_size::total             3976639552                       # Cumulative packet size per connected master and slave (bytes)
system.tol2bus.snoops                        56377181                       # Total snoops (count)
system.tol2bus.snoopTraffic                 332861504                       # Total snoop traffic (bytes)
system.tol2bus.snoop_fanout::samples         87464480                       # Request fanout histogram
system.tol2bus.snoop_fanout::mean            0.338084                       # Request fanout histogram
system.tol2bus.snoop_fanout::stdev           0.583830                       # Request fanout histogram
system.tol2bus.snoop_fanout::underflows             0      0.00%      0.00% # Request fanout histogram
system.tol2bus.snoop_fanout::0               61126634     69.89%     69.89% # Request fanout histogram
system.tol2bus.snoop_fanout::1               24640014     28.17%     98.06% # Request fanout histogram
system.tol2bus.snoop_fanout::2                 515808      0.59%     98.65% # Request fanout histogram
system.tol2bus.snoop_fanout::3                 829349      0.95%     99.60% # Request fanout histogram
system.tol2bus.snoop_fanout::4                 352675      0.40%    100.00% # Request fanout histogram
system.tol2bus.snoop_fanout::5                      0      0.00%    100.00% # Request fanout histogram
system.tol2bus.snoop_fanout::6                      0      0.00%    100.00% # Request fanout histogram
system.tol2bus.snoop_fanout::7                      0      0.00%    100.00% # Request fanout histogram
system.tol2bus.snoop_fanout::8                      0      0.00%    100.00% # Request fanout histogram
system.tol2bus.snoop_fanout::overflows              0      0.00%    100.00% # Request fanout histogram
system.tol2bus.snoop_fanout::min_value              0                       # Request fanout histogram
system.tol2bus.snoop_fanout::max_value              4                       # Request fanout histogram
system.tol2bus.snoop_fanout::total           87464480                       # Request fanout histogram
system.tol2bus.reqLayer0.occupancy        62177671288                       # Layer occupancy (ticks)
system.tol2bus.reqLayer0.utilization              9.8                       # Layer utilization (%)
system.tol2bus.respLayer5.occupancy       10418614257                       # Layer occupancy (ticks)
system.tol2bus.respLayer5.utilization             1.6                       # Layer utilization (%)
system.tol2bus.respLayer4.occupancy           9158096                       # Layer occupancy (ticks)
system.tol2bus.respLayer4.utilization             0.0                       # Layer utilization (%)
system.tol2bus.respLayer7.occupancy        9323122815                       # Layer occupancy (ticks)
system.tol2bus.respLayer7.utilization             1.5                       # Layer utilization (%)
system.tol2bus.respLayer6.occupancy           9126211                       # Layer occupancy (ticks)
system.tol2bus.respLayer6.utilization             0.0                       # Layer utilization (%)
system.tol2bus.respLayer1.occupancy       14401674418                       # Layer occupancy (ticks)
system.tol2bus.respLayer1.utilization             2.3                       # Layer utilization (%)
system.tol2bus.respLayer0.occupancy         605583644                       # Layer occupancy (ticks)
system.tol2bus.respLayer0.utilization             0.1                       # Layer utilization (%)
system.tol2bus.respLayer3.occupancy       11943754573                       # Layer occupancy (ticks)
system.tol2bus.respLayer3.utilization             1.9                       # Layer utilization (%)
system.tol2bus.respLayer2.occupancy           9299558                       # Layer occupancy (ticks)
system.tol2bus.respLayer2.utilization             0.0                       # Layer utilization (%)
system.tol2bus.snoopLayer0.occupancy            15083                       # Layer occupancy (ticks)
system.tol2bus.snoopLayer0.utilization            0.0                       # Layer utilization (%)

---------- End Simulation Statistics   ----------
