
---------- Begin Simulation Statistics ----------
<<<<<<< HEAD
final_tick                               2264973123500                       # Number of ticks from beginning of simulation (restored from checkpoints and never reset)
host_inst_rate                                 101438                       # Simulator instruction rate (inst/s)
host_mem_usage                                 739076                       # Number of bytes of host memory used
host_op_rate                                   101765                       # Simulator op (including micro ops) rate (op/s)
host_seconds                                 23249.31                       # Real time elapsed on the host
host_tick_rate                               97421090                       # Simulator tick rate (ticks/s)
sim_freq                                 1000000000000                       # Frequency of simulated ticks
sim_insts                                  2358359814                       # Number of instructions simulated
sim_ops                                    2365969965                       # Number of ops (including micro ops) simulated
sim_seconds                                  2.264973                       # Number of seconds simulated
sim_ticks                                2264973123500                       # Number of ticks simulated
system.cpu0.branchPred.BTBCorrect                   0                       # Number of correct BTB predictions (this stat may not work properly.
system.cpu0.branchPred.BTBHitPct            87.081872                       # BTB Hit Percentage
system.cpu0.branchPred.BTBHits              287976013                       # Number of BTB hits
system.cpu0.branchPred.BTBLookups           330695707                       # Number of BTB lookups
system.cpu0.branchPred.RASInCorrect                 0                       # Number of incorrect RAS predictions.
system.cpu0.branchPred.condIncorrect         24936360                       # Number of conditional branches incorrect
system.cpu0.branchPred.condPredicted        449955431                       # Number of conditional branches predicted
system.cpu0.branchPred.indirectHits          42094184                       # Number of indirect target hits.
system.cpu0.branchPred.indirectLookups       42410781                       # Number of indirect predictor lookups.
system.cpu0.branchPred.indirectMisses          316597                       # Number of indirect misses.
system.cpu0.branchPred.lookups              578710930                       # Number of BP lookups
system.cpu0.branchPred.usedRAS                      0                       # Number of times the RAS was used to get a target.
system.cpu0.branchPredindirectMispredicted      3902822                       # Number of mispredicted indirect branches.
system.cpu0.commit.amos                       1901245                       # Number of atomic instructions committed
system.cpu0.commit.branchMispredicts         16309742                       # The number of times a branch was mispredicted
system.cpu0.commit.branches                 534979774                       # Number of branches committed
system.cpu0.commit.bw_lim_events             61942166                       # number cycles where commit BW limit reached
system.cpu0.commit.commitNonSpecStalls        5717974                       # The number of times commit has been forced to stall to communicate backwards
system.cpu0.commit.commitSquashedInsts      151397726                       # The number of squashed insts skipped by commit
system.cpu0.commit.committedInsts          2142374060                       # Number of instructions committed
system.cpu0.commit.committedOps            2144280599                       # Number of ops (including micro ops) committed
system.cpu0.commit.committed_per_cycle::samples   3458654903                       # Number of insts commited each cycle
system.cpu0.commit.committed_per_cycle::mean     0.619975                       # Number of insts commited each cycle
system.cpu0.commit.committed_per_cycle::stdev     1.405629                       # Number of insts commited each cycle
system.cpu0.commit.committed_per_cycle::underflows            0      0.00%      0.00% # Number of insts commited each cycle
system.cpu0.commit.committed_per_cycle::0   2442866060     70.63%     70.63% # Number of insts commited each cycle
system.cpu0.commit.committed_per_cycle::1    607000891     17.55%     88.18% # Number of insts commited each cycle
system.cpu0.commit.committed_per_cycle::2    135184969      3.91%     92.09% # Number of insts commited each cycle
system.cpu0.commit.committed_per_cycle::3    134554269      3.89%     95.98% # Number of insts commited each cycle
system.cpu0.commit.committed_per_cycle::4     43193710      1.25%     97.23% # Number of insts commited each cycle
system.cpu0.commit.committed_per_cycle::5     19521996      0.56%     97.79% # Number of insts commited each cycle
system.cpu0.commit.committed_per_cycle::6      3411079      0.10%     97.89% # Number of insts commited each cycle
system.cpu0.commit.committed_per_cycle::7     10979763      0.32%     98.21% # Number of insts commited each cycle
system.cpu0.commit.committed_per_cycle::8     61942166      1.79%    100.00% # Number of insts commited each cycle
system.cpu0.commit.committed_per_cycle::overflows            0      0.00%    100.00% # Number of insts commited each cycle
system.cpu0.commit.committed_per_cycle::min_value            0                       # Number of insts commited each cycle
system.cpu0.commit.committed_per_cycle::max_value            8                       # Number of insts commited each cycle
system.cpu0.commit.committed_per_cycle::total   3458654903                       # Number of insts commited each cycle
system.cpu0.commit.fp_insts                        50                       # Number of committed floating point instructions.
system.cpu0.commit.function_calls            43219205                       # Number of function calls committed.
system.cpu0.commit.int_insts               2071869323                       # Number of committed integer instructions.
system.cpu0.commit.loads                    668867395                       # Number of loads committed
system.cpu0.commit.membars                    3807652                       # Number of memory barriers committed
system.cpu0.commit.op_class_0::No_OpClass      3807658      0.18%      0.18% # Class of committed instruction
system.cpu0.commit.op_class_0::IntAlu      1188042879     55.41%     55.58% # Class of committed instruction
system.cpu0.commit.op_class_0::IntMult       18318163      0.85%     56.44% # Class of committed instruction
system.cpu0.commit.op_class_0::IntDiv         3801411      0.18%     56.61% # Class of committed instruction
system.cpu0.commit.op_class_0::FloatAdd             0      0.00%     56.61% # Class of committed instruction
system.cpu0.commit.op_class_0::FloatCmp             4      0.00%     56.61% # Class of committed instruction
system.cpu0.commit.op_class_0::FloatCvt            12      0.00%     56.61% # Class of committed instruction
system.cpu0.commit.op_class_0::FloatMult            0      0.00%     56.61% # Class of committed instruction
system.cpu0.commit.op_class_0::FloatMultAcc            0      0.00%     56.61% # Class of committed instruction
system.cpu0.commit.op_class_0::FloatDiv             2      0.00%     56.61% # Class of committed instruction
system.cpu0.commit.op_class_0::FloatMisc            4      0.00%     56.61% # Class of committed instruction
system.cpu0.commit.op_class_0::FloatSqrt            0      0.00%     56.61% # Class of committed instruction
system.cpu0.commit.op_class_0::SimdAdd              0      0.00%     56.61% # Class of committed instruction
system.cpu0.commit.op_class_0::SimdAddAcc            0      0.00%     56.61% # Class of committed instruction
system.cpu0.commit.op_class_0::SimdAlu              0      0.00%     56.61% # Class of committed instruction
system.cpu0.commit.op_class_0::SimdCmp              0      0.00%     56.61% # Class of committed instruction
system.cpu0.commit.op_class_0::SimdCvt              0      0.00%     56.61% # Class of committed instruction
system.cpu0.commit.op_class_0::SimdMisc             0      0.00%     56.61% # Class of committed instruction
system.cpu0.commit.op_class_0::SimdMult             0      0.00%     56.61% # Class of committed instruction
system.cpu0.commit.op_class_0::SimdMultAcc            0      0.00%     56.61% # Class of committed instruction
system.cpu0.commit.op_class_0::SimdShift            0      0.00%     56.61% # Class of committed instruction
system.cpu0.commit.op_class_0::SimdShiftAcc            0      0.00%     56.61% # Class of committed instruction
system.cpu0.commit.op_class_0::SimdDiv              0      0.00%     56.61% # Class of committed instruction
system.cpu0.commit.op_class_0::SimdSqrt             0      0.00%     56.61% # Class of committed instruction
system.cpu0.commit.op_class_0::SimdFloatAdd            0      0.00%     56.61% # Class of committed instruction
system.cpu0.commit.op_class_0::SimdFloatAlu            0      0.00%     56.61% # Class of committed instruction
system.cpu0.commit.op_class_0::SimdFloatCmp            0      0.00%     56.61% # Class of committed instruction
system.cpu0.commit.op_class_0::SimdFloatCvt            0      0.00%     56.61% # Class of committed instruction
system.cpu0.commit.op_class_0::SimdFloatDiv            0      0.00%     56.61% # Class of committed instruction
system.cpu0.commit.op_class_0::SimdFloatMisc            0      0.00%     56.61% # Class of committed instruction
system.cpu0.commit.op_class_0::SimdFloatMult            0      0.00%     56.61% # Class of committed instruction
system.cpu0.commit.op_class_0::SimdFloatMultAcc            0      0.00%     56.61% # Class of committed instruction
system.cpu0.commit.op_class_0::SimdFloatSqrt            0      0.00%     56.61% # Class of committed instruction
system.cpu0.commit.op_class_0::SimdReduceAdd            0      0.00%     56.61% # Class of committed instruction
system.cpu0.commit.op_class_0::SimdReduceAlu            0      0.00%     56.61% # Class of committed instruction
system.cpu0.commit.op_class_0::SimdReduceCmp            0      0.00%     56.61% # Class of committed instruction
system.cpu0.commit.op_class_0::SimdFloatReduceAdd            0      0.00%     56.61% # Class of committed instruction
system.cpu0.commit.op_class_0::SimdFloatReduceCmp            0      0.00%     56.61% # Class of committed instruction
system.cpu0.commit.op_class_0::SimdAes              0      0.00%     56.61% # Class of committed instruction
system.cpu0.commit.op_class_0::SimdAesMix            0      0.00%     56.61% # Class of committed instruction
system.cpu0.commit.op_class_0::SimdSha1Hash            0      0.00%     56.61% # Class of committed instruction
system.cpu0.commit.op_class_0::SimdSha1Hash2            0      0.00%     56.61% # Class of committed instruction
system.cpu0.commit.op_class_0::SimdSha256Hash            0      0.00%     56.61% # Class of committed instruction
system.cpu0.commit.op_class_0::SimdSha256Hash2            0      0.00%     56.61% # Class of committed instruction
system.cpu0.commit.op_class_0::SimdShaSigma2            0      0.00%     56.61% # Class of committed instruction
system.cpu0.commit.op_class_0::SimdShaSigma3            0      0.00%     56.61% # Class of committed instruction
system.cpu0.commit.op_class_0::SimdPredAlu            0      0.00%     56.61% # Class of committed instruction
system.cpu0.commit.op_class_0::MemRead      670768632     31.28%     87.90% # Class of committed instruction
system.cpu0.commit.op_class_0::MemWrite     259541806     12.10%    100.00% # Class of committed instruction
=======
final_tick                               2707156912500                       # Number of ticks from beginning of simulation (restored from checkpoints and never reset)
host_inst_rate                                  81820                       # Simulator instruction rate (inst/s)
host_mem_usage                                 702104                       # Number of bytes of host memory used
host_op_rate                                    82084                       # Simulator op (including micro ops) rate (op/s)
host_seconds                                 28780.37                       # Real time elapsed on the host
host_tick_rate                               94062621                       # Simulator tick rate (ticks/s)
sim_freq                                 1000000000000                       # Frequency of simulated ticks
sim_insts                                  2354798946                       # Number of instructions simulated
sim_ops                                    2362407852                       # Number of ops (including micro ops) simulated
sim_seconds                                  2.707157                       # Number of seconds simulated
sim_ticks                                2707156912500                       # Number of ticks simulated
system.cpu0.branchPred.BTBCorrect                   0                       # Number of correct BTB predictions (this stat may not work properly.
system.cpu0.branchPred.BTBHitPct            87.910536                       # BTB Hit Percentage
system.cpu0.branchPred.BTBHits              297042022                       # Number of BTB hits
system.cpu0.branchPred.BTBLookups           337891263                       # Number of BTB lookups
system.cpu0.branchPred.RASInCorrect                 0                       # Number of incorrect RAS predictions.
system.cpu0.branchPred.condIncorrect         26655949                       # Number of conditional branches incorrect
system.cpu0.branchPred.condPredicted        462646991                       # Number of conditional branches predicted
system.cpu0.branchPred.indirectHits          39806319                       # Number of indirect target hits.
system.cpu0.branchPred.indirectLookups       40329996                       # Number of indirect predictor lookups.
system.cpu0.branchPred.indirectMisses          523677                       # Number of indirect misses.
system.cpu0.branchPred.lookups              588438367                       # Number of BP lookups
system.cpu0.branchPred.usedRAS                      0                       # Number of times the RAS was used to get a target.
system.cpu0.branchPredindirectMispredicted      3959283                       # Number of mispredicted indirect branches.
system.cpu0.commit.amos                       3801864                       # Number of atomic instructions committed
system.cpu0.commit.branchMispredicts         17324551                       # The number of times a branch was mispredicted
system.cpu0.commit.branches                 555005837                       # Number of branches committed
system.cpu0.commit.bw_lim_events             56436148                       # number cycles where commit BW limit reached
system.cpu0.commit.commitNonSpecStalls       11419497                       # The number of times commit has been forced to stall to communicate backwards
system.cpu0.commit.commitSquashedInsts       92158429                       # The number of squashed insts skipped by commit
system.cpu0.commit.committedInsts          2224728415                       # Number of instructions committed
system.cpu0.commit.committedOps            2228535570                       # Number of ops (including micro ops) committed
system.cpu0.commit.committed_per_cycle::samples   3759583654                       # Number of insts commited each cycle
system.cpu0.commit.committed_per_cycle::mean     0.592761                       # Number of insts commited each cycle
system.cpu0.commit.committed_per_cycle::stdev     1.351628                       # Number of insts commited each cycle
system.cpu0.commit.committed_per_cycle::underflows            0      0.00%      0.00% # Number of insts commited each cycle
system.cpu0.commit.committed_per_cycle::0   2685821238     71.44%     71.44% # Number of insts commited each cycle
system.cpu0.commit.committed_per_cycle::1    637584242     16.96%     88.40% # Number of insts commited each cycle
system.cpu0.commit.committed_per_cycle::2    150585245      4.01%     92.40% # Number of insts commited each cycle
system.cpu0.commit.committed_per_cycle::3    146006886      3.88%     96.29% # Number of insts commited each cycle
system.cpu0.commit.committed_per_cycle::4     46357811      1.23%     97.52% # Number of insts commited each cycle
system.cpu0.commit.committed_per_cycle::5     17048268      0.45%     97.97% # Number of insts commited each cycle
system.cpu0.commit.committed_per_cycle::6      8608300      0.23%     98.20% # Number of insts commited each cycle
system.cpu0.commit.committed_per_cycle::7     11135516      0.30%     98.50% # Number of insts commited each cycle
system.cpu0.commit.committed_per_cycle::8     56436148      1.50%    100.00% # Number of insts commited each cycle
system.cpu0.commit.committed_per_cycle::overflows            0      0.00%    100.00% # Number of insts commited each cycle
system.cpu0.commit.committed_per_cycle::min_value            0                       # Number of insts commited each cycle
system.cpu0.commit.committed_per_cycle::max_value            8                       # Number of insts commited each cycle
system.cpu0.commit.committed_per_cycle::total   3759583654                       # Number of insts commited each cycle
system.cpu0.commit.fp_insts                        50                       # Number of committed floating point instructions.
system.cpu0.commit.function_calls            44163788                       # Number of function calls committed.
system.cpu0.commit.int_insts               2150845037                       # Number of committed integer instructions.
system.cpu0.commit.loads                    691535153                       # Number of loads committed
system.cpu0.commit.membars                    7608891                       # Number of memory barriers committed
system.cpu0.commit.op_class_0::No_OpClass      7608897      0.34%      0.34% # Class of committed instruction
system.cpu0.commit.op_class_0::IntAlu      1238705952     55.58%     55.93% # Class of committed instruction
system.cpu0.commit.op_class_0::IntMult       18318071      0.82%     56.75% # Class of committed instruction
system.cpu0.commit.op_class_0::IntDiv         3801411      0.17%     56.92% # Class of committed instruction
system.cpu0.commit.op_class_0::FloatAdd             0      0.00%     56.92% # Class of committed instruction
system.cpu0.commit.op_class_0::FloatCmp             4      0.00%     56.92% # Class of committed instruction
system.cpu0.commit.op_class_0::FloatCvt            12      0.00%     56.92% # Class of committed instruction
system.cpu0.commit.op_class_0::FloatMult            0      0.00%     56.92% # Class of committed instruction
system.cpu0.commit.op_class_0::FloatMultAcc            0      0.00%     56.92% # Class of committed instruction
system.cpu0.commit.op_class_0::FloatDiv             2      0.00%     56.92% # Class of committed instruction
system.cpu0.commit.op_class_0::FloatMisc            4      0.00%     56.92% # Class of committed instruction
system.cpu0.commit.op_class_0::FloatSqrt            0      0.00%     56.92% # Class of committed instruction
system.cpu0.commit.op_class_0::SimdAdd              0      0.00%     56.92% # Class of committed instruction
system.cpu0.commit.op_class_0::SimdAddAcc            0      0.00%     56.92% # Class of committed instruction
system.cpu0.commit.op_class_0::SimdAlu              0      0.00%     56.92% # Class of committed instruction
system.cpu0.commit.op_class_0::SimdCmp              0      0.00%     56.92% # Class of committed instruction
system.cpu0.commit.op_class_0::SimdCvt              0      0.00%     56.92% # Class of committed instruction
system.cpu0.commit.op_class_0::SimdMisc             0      0.00%     56.92% # Class of committed instruction
system.cpu0.commit.op_class_0::SimdMult             0      0.00%     56.92% # Class of committed instruction
system.cpu0.commit.op_class_0::SimdMultAcc            0      0.00%     56.92% # Class of committed instruction
system.cpu0.commit.op_class_0::SimdShift            0      0.00%     56.92% # Class of committed instruction
system.cpu0.commit.op_class_0::SimdShiftAcc            0      0.00%     56.92% # Class of committed instruction
system.cpu0.commit.op_class_0::SimdDiv              0      0.00%     56.92% # Class of committed instruction
system.cpu0.commit.op_class_0::SimdSqrt             0      0.00%     56.92% # Class of committed instruction
system.cpu0.commit.op_class_0::SimdFloatAdd            0      0.00%     56.92% # Class of committed instruction
system.cpu0.commit.op_class_0::SimdFloatAlu            0      0.00%     56.92% # Class of committed instruction
system.cpu0.commit.op_class_0::SimdFloatCmp            0      0.00%     56.92% # Class of committed instruction
system.cpu0.commit.op_class_0::SimdFloatCvt            0      0.00%     56.92% # Class of committed instruction
system.cpu0.commit.op_class_0::SimdFloatDiv            0      0.00%     56.92% # Class of committed instruction
system.cpu0.commit.op_class_0::SimdFloatMisc            0      0.00%     56.92% # Class of committed instruction
system.cpu0.commit.op_class_0::SimdFloatMult            0      0.00%     56.92% # Class of committed instruction
system.cpu0.commit.op_class_0::SimdFloatMultAcc            0      0.00%     56.92% # Class of committed instruction
system.cpu0.commit.op_class_0::SimdFloatSqrt            0      0.00%     56.92% # Class of committed instruction
system.cpu0.commit.op_class_0::SimdReduceAdd            0      0.00%     56.92% # Class of committed instruction
system.cpu0.commit.op_class_0::SimdReduceAlu            0      0.00%     56.92% # Class of committed instruction
system.cpu0.commit.op_class_0::SimdReduceCmp            0      0.00%     56.92% # Class of committed instruction
system.cpu0.commit.op_class_0::SimdFloatReduceAdd            0      0.00%     56.92% # Class of committed instruction
system.cpu0.commit.op_class_0::SimdFloatReduceCmp            0      0.00%     56.92% # Class of committed instruction
system.cpu0.commit.op_class_0::SimdAes              0      0.00%     56.92% # Class of committed instruction
system.cpu0.commit.op_class_0::SimdAesMix            0      0.00%     56.92% # Class of committed instruction
system.cpu0.commit.op_class_0::SimdSha1Hash            0      0.00%     56.92% # Class of committed instruction
system.cpu0.commit.op_class_0::SimdSha1Hash2            0      0.00%     56.92% # Class of committed instruction
system.cpu0.commit.op_class_0::SimdSha256Hash            0      0.00%     56.92% # Class of committed instruction
system.cpu0.commit.op_class_0::SimdSha256Hash2            0      0.00%     56.92% # Class of committed instruction
system.cpu0.commit.op_class_0::SimdShaSigma2            0      0.00%     56.92% # Class of committed instruction
system.cpu0.commit.op_class_0::SimdShaSigma3            0      0.00%     56.92% # Class of committed instruction
system.cpu0.commit.op_class_0::SimdPredAlu            0      0.00%     56.92% # Class of committed instruction
system.cpu0.commit.op_class_0::MemRead      695337009     31.20%     88.12% # Class of committed instruction
system.cpu0.commit.op_class_0::MemWrite     264764180     11.88%    100.00% # Class of committed instruction
>>>>>>> 6be7a0502e78ebf80a09b838e3e9c0d652379c93
system.cpu0.commit.op_class_0::FloatMemRead            8      0.00%    100.00% # Class of committed instruction
system.cpu0.commit.op_class_0::FloatMemWrite           20      0.00%    100.00% # Class of committed instruction
system.cpu0.commit.op_class_0::IprAccess            0      0.00%    100.00% # Class of committed instruction
system.cpu0.commit.op_class_0::InstPrefetch            0      0.00%    100.00% # Class of committed instruction
<<<<<<< HEAD
system.cpu0.commit.op_class_0::total       2144280599                       # Class of committed instruction
system.cpu0.commit.refs                     930310466                       # Number of memory references committed
system.cpu0.commit.swp_count                        0                       # Number of s/w prefetches committed
system.cpu0.commit.vec_insts                        0                       # Number of committed Vector instructions.
system.cpu0.committedInsts                 2142374060                       # Number of Instructions Simulated
system.cpu0.committedOps                   2144280599                       # Number of Ops (including micro ops) Simulated
system.cpu0.cpi                              2.105541                       # CPI: Cycles Per Instruction
system.cpu0.cpi_total                        2.105541                       # CPI: Total CPI of All Threads
system.cpu0.decode.BlockedCycles            408595759                       # Number of cycles decode is blocked
system.cpu0.decode.BranchMispred              8632638                       # Number of times decode detected a branch misprediction
system.cpu0.decode.BranchResolved           283510477                       # Number of times decode resolved a branch
system.cpu0.decode.DecodedInsts            2325330716                       # Number of instructions handled by decode
system.cpu0.decode.IdleCycles              1435747538                       # Number of cycles decode is idle
system.cpu0.decode.RunCycles               1620476304                       # Number of cycles decode is running
system.cpu0.decode.SquashCycles              16322503                       # Number of cycles decode is squashing
system.cpu0.decode.SquashedInsts             26114749                       # Number of squashed instructions handled by decode
system.cpu0.decode.UnblockCycles              7737190                       # Number of cycles decode is unblocking
=======
system.cpu0.commit.op_class_0::total       2228535570                       # Class of committed instruction
system.cpu0.commit.refs                     960101217                       # Number of memory references committed
system.cpu0.commit.swp_count                        0                       # Number of s/w prefetches committed
system.cpu0.commit.vec_insts                        0                       # Number of committed Vector instructions.
system.cpu0.committedInsts                 2224728415                       # Number of Instructions Simulated
system.cpu0.committedOps                   2228535570                       # Number of Ops (including micro ops) Simulated
system.cpu0.cpi                              2.429993                       # CPI: Cycles Per Instruction
system.cpu0.cpi_total                        2.429993                       # CPI: Total CPI of All Threads
system.cpu0.decode.BlockedCycles            678700717                       # Number of cycles decode is blocked
system.cpu0.decode.BranchMispred              9344460                       # Number of times decode detected a branch misprediction
system.cpu0.decode.BranchResolved           294236893                       # Number of times decode resolved a branch
system.cpu0.decode.DecodedInsts            2356808847                       # Number of instructions handled by decode
system.cpu0.decode.IdleCycles              1467018700                       # Number of cycles decode is idle
system.cpu0.decode.RunCycles               1611568602                       # Number of cycles decode is running
system.cpu0.decode.SquashCycles              17337070                       # Number of cycles decode is squashing
system.cpu0.decode.SquashedInsts             23417045                       # Number of squashed instructions handled by decode
system.cpu0.decode.UnblockCycles              9895448                       # Number of cycles decode is unblocking
>>>>>>> 6be7a0502e78ebf80a09b838e3e9c0d652379c93
system.cpu0.dtb.accesses                            0                       # DTB accesses
system.cpu0.dtb.hits                                0                       # DTB hits
system.cpu0.dtb.misses                              0                       # DTB misses
system.cpu0.dtb.read_accesses                       0                       # DTB read accesses
system.cpu0.dtb.read_hits                           0                       # DTB read hits
system.cpu0.dtb.read_misses                         0                       # DTB read misses
system.cpu0.dtb.write_accesses                      0                       # DTB write accesses
system.cpu0.dtb.write_hits                          0                       # DTB write hits
system.cpu0.dtb.write_misses                        0                       # DTB write misses
<<<<<<< HEAD
system.cpu0.fetch.Branches                  578710930                       # Number of branches that fetch encountered
system.cpu0.fetch.CacheLines                391531990                       # Number of cache lines fetched
system.cpu0.fetch.Cycles                   2058203417                       # Number of cycles fetch has run and was not squashing or blocked
system.cpu0.fetch.IcacheSquashes             10968906                       # Number of outstanding Icache misses that were squashed
system.cpu0.fetch.IcacheWaitRetryStallCycles           85                       # Number of stall cycles due to full MSHR
system.cpu0.fetch.Insts                    2376114243                       # Number of instructions fetch has processed
system.cpu0.fetch.MiscStallCycles                  24                       # Number of cycles fetch has spent waiting on interrupts, or bad addresses, or out of MSHRs
system.cpu0.fetch.PendingTrapStallCycles          102                       # Number of stall cycles due to pending traps
system.cpu0.fetch.SquashCycles               49898274                       # Number of cycles fetch has spent squashing
system.cpu0.fetch.branchRate                 0.128293                       # Number of branch fetches per cycle
system.cpu0.fetch.icacheStallCycles        1405726529                       # Number of cycles fetch is stalled on an Icache miss
system.cpu0.fetch.predictedBranches         330070197                       # Number of branches that fetch has predicted taken
system.cpu0.fetch.rate                       0.526755                       # Number of inst fetches per cycle
system.cpu0.fetch.rateDist::samples        3488879294                       # Number of instructions fetched each cycle (Total)
system.cpu0.fetch.rateDist::mean             0.681600                       # Number of instructions fetched each cycle (Total)
system.cpu0.fetch.rateDist::stdev            0.915889                       # Number of instructions fetched each cycle (Total)
system.cpu0.fetch.rateDist::underflows              0      0.00%      0.00% # Number of instructions fetched each cycle (Total)
system.cpu0.fetch.rateDist::0              1815731880     52.04%     52.04% # Number of instructions fetched each cycle (Total)
system.cpu0.fetch.rateDist::1              1239168739     35.52%     87.56% # Number of instructions fetched each cycle (Total)
system.cpu0.fetch.rateDist::2               227125091      6.51%     94.07% # Number of instructions fetched each cycle (Total)
system.cpu0.fetch.rateDist::3               164496103      4.71%     98.79% # Number of instructions fetched each cycle (Total)
system.cpu0.fetch.rateDist::4                32503050      0.93%     99.72% # Number of instructions fetched each cycle (Total)
system.cpu0.fetch.rateDist::5                 5639988      0.16%     99.88% # Number of instructions fetched each cycle (Total)
system.cpu0.fetch.rateDist::6                  406593      0.01%     99.89% # Number of instructions fetched each cycle (Total)
system.cpu0.fetch.rateDist::7                     457      0.00%     99.89% # Number of instructions fetched each cycle (Total)
system.cpu0.fetch.rateDist::8                 3807393      0.11%    100.00% # Number of instructions fetched each cycle (Total)
system.cpu0.fetch.rateDist::overflows               0      0.00%    100.00% # Number of instructions fetched each cycle (Total)
system.cpu0.fetch.rateDist::min_value               0                       # Number of instructions fetched each cycle (Total)
system.cpu0.fetch.rateDist::max_value               8                       # Number of instructions fetched each cycle (Total)
system.cpu0.fetch.rateDist::total          3488879294                       # Number of instructions fetched each cycle (Total)
system.cpu0.fp_regfile_reads                       44                       # number of floating regfile reads
system.cpu0.fp_regfile_writes                      23                       # number of floating regfile writes
system.cpu0.idleCycles                     1021976936                       # Total number of cycles that the CPU has spent unscheduled due to idling
system.cpu0.iew.branchMispredicts            16519761                       # Number of branch mispredicts detected at execute
system.cpu0.iew.exec_branches               557149797                       # Number of branches executed
system.cpu0.iew.exec_nop                            0                       # number of nop insts executed
system.cpu0.iew.exec_rate                    0.507384                       # Inst execution rate
system.cpu0.iew.exec_refs                  1020794557                       # number of memory reference insts executed
system.cpu0.iew.exec_stores                 280177433                       # Number of stores executed
system.cpu0.iew.exec_swp                            0                       # number of swp insts executed
system.cpu0.iew.iewBlockCycles              337259796                       # Number of cycles IEW is blocking
system.cpu0.iew.iewDispLoadInsts            736453403                       # Number of dispatched load instructions
system.cpu0.iew.iewDispNonSpecInsts           1910587                       # Number of dispatched non-speculative instructions
system.cpu0.iew.iewDispSquashedInsts          7609713                       # Number of squashed instructions skipped by dispatch
system.cpu0.iew.iewDispStoreInsts           281826172                       # Number of dispatched store instructions
system.cpu0.iew.iewDispatchedInsts         2295645829                       # Number of instructions dispatched to IQ
system.cpu0.iew.iewExecLoadInsts            740617124                       # Number of load instructions executed
system.cpu0.iew.iewExecSquashedInsts          7697754                       # Number of squashed instructions skipped in execute
system.cpu0.iew.iewExecutedInsts           2288735356                       # Number of executed instructions
system.cpu0.iew.iewIQFullEvents               1771988                       # Number of times the IQ has become full, causing a stall
system.cpu0.iew.iewIdleCycles                       0                       # Number of cycles IEW is idle
system.cpu0.iew.iewLSQFullEvents              4756432                       # Number of times the LSQ has become full, causing a stall
system.cpu0.iew.iewSquashCycles              16322503                       # Number of cycles IEW is squashing
system.cpu0.iew.iewUnblockCycles              8587691                       # Number of cycles IEW is unblocking
system.cpu0.iew.lsq.thread0.blockedLoads            0                       # Number of blocked loads due to partial load-store forwarding
system.cpu0.iew.lsq.thread0.cacheBlocked       207775                       # Number of times an access to memory failed due to the cache being blocked
system.cpu0.iew.lsq.thread0.forwLoads        38969121                       # Number of loads that had data forwarded from stores
system.cpu0.iew.lsq.thread0.ignoredResponses        71659                       # Number of memory responses ignored because the instruction is squashed
system.cpu0.iew.lsq.thread0.invAddrLoads            0                       # Number of loads ignored due to an invalid address
system.cpu0.iew.lsq.thread0.invAddrSwpfs            0                       # Number of software prefetches ignored due to an invalid address
system.cpu0.iew.lsq.thread0.memOrderViolation        13853                       # Number of memory ordering violations
system.cpu0.iew.lsq.thread0.rescheduledLoads     12804591                       # Number of loads that were rescheduled
system.cpu0.iew.lsq.thread0.squashedLoads     67586008                       # Number of loads squashed
system.cpu0.iew.lsq.thread0.squashedStores     20383101                       # Number of stores squashed
system.cpu0.iew.memOrderViolationEvents         13853                       # Number of memory order violations
system.cpu0.iew.predictedNotTakenIncorrect      1901987                       # Number of branches that were predicted not taken incorrectly
system.cpu0.iew.predictedTakenIncorrect      14617774                       # Number of branches that were predicted taken incorrectly
system.cpu0.iew.wb_consumers               1016077295                       # num instructions consuming a value
system.cpu0.iew.wb_count                   2270636781                       # cumulative count of insts written-back
system.cpu0.iew.wb_fanout                    0.840344                       # average fanout of values written-back
system.cpu0.iew.wb_producers                853854534                       # num instructions producing a value
system.cpu0.iew.wb_rate                      0.503372                       # insts written-back per cycle
system.cpu0.iew.wb_sent                    2270951217                       # cumulative count of insts sent to commit
system.cpu0.int_regfile_reads              2788646800                       # number of integer regfile reads
system.cpu0.int_regfile_writes             1453857447                       # number of integer regfile writes
system.cpu0.ipc                              0.474937                       # IPC: Instructions Per Cycle
system.cpu0.ipc_total                        0.474937                       # IPC: Total IPC of All Threads
system.cpu0.iq.FU_type_0::No_OpClass          3810695      0.17%      0.17% # Type of FU issued
system.cpu0.iq.FU_type_0::IntAlu           1246554588     54.28%     54.45% # Type of FU issued
system.cpu0.iq.FU_type_0::IntMult            18649681      0.81%     55.26% # Type of FU issued
system.cpu0.iq.FU_type_0::IntDiv              3802467      0.17%     55.43% # Type of FU issued
system.cpu0.iq.FU_type_0::FloatAdd                  0      0.00%     55.43% # Type of FU issued
system.cpu0.iq.FU_type_0::FloatCmp                  4      0.00%     55.43% # Type of FU issued
system.cpu0.iq.FU_type_0::FloatCvt                 12      0.00%     55.43% # Type of FU issued
system.cpu0.iq.FU_type_0::FloatMult                 0      0.00%     55.43% # Type of FU issued
system.cpu0.iq.FU_type_0::FloatMultAcc              0      0.00%     55.43% # Type of FU issued
system.cpu0.iq.FU_type_0::FloatDiv                  2      0.00%     55.43% # Type of FU issued
system.cpu0.iq.FU_type_0::FloatMisc                 4      0.00%     55.43% # Type of FU issued
system.cpu0.iq.FU_type_0::FloatSqrt                 0      0.00%     55.43% # Type of FU issued
system.cpu0.iq.FU_type_0::SimdAdd                   0      0.00%     55.43% # Type of FU issued
system.cpu0.iq.FU_type_0::SimdAddAcc                0      0.00%     55.43% # Type of FU issued
system.cpu0.iq.FU_type_0::SimdAlu                   0      0.00%     55.43% # Type of FU issued
system.cpu0.iq.FU_type_0::SimdCmp                   0      0.00%     55.43% # Type of FU issued
system.cpu0.iq.FU_type_0::SimdCvt                   0      0.00%     55.43% # Type of FU issued
system.cpu0.iq.FU_type_0::SimdMisc                  0      0.00%     55.43% # Type of FU issued
system.cpu0.iq.FU_type_0::SimdMult                  0      0.00%     55.43% # Type of FU issued
system.cpu0.iq.FU_type_0::SimdMultAcc               0      0.00%     55.43% # Type of FU issued
system.cpu0.iq.FU_type_0::SimdShift                 0      0.00%     55.43% # Type of FU issued
system.cpu0.iq.FU_type_0::SimdShiftAcc              0      0.00%     55.43% # Type of FU issued
system.cpu0.iq.FU_type_0::SimdDiv                   0      0.00%     55.43% # Type of FU issued
system.cpu0.iq.FU_type_0::SimdSqrt                  0      0.00%     55.43% # Type of FU issued
system.cpu0.iq.FU_type_0::SimdFloatAdd              0      0.00%     55.43% # Type of FU issued
system.cpu0.iq.FU_type_0::SimdFloatAlu              0      0.00%     55.43% # Type of FU issued
system.cpu0.iq.FU_type_0::SimdFloatCmp              0      0.00%     55.43% # Type of FU issued
system.cpu0.iq.FU_type_0::SimdFloatCvt              0      0.00%     55.43% # Type of FU issued
system.cpu0.iq.FU_type_0::SimdFloatDiv              0      0.00%     55.43% # Type of FU issued
system.cpu0.iq.FU_type_0::SimdFloatMisc             0      0.00%     55.43% # Type of FU issued
system.cpu0.iq.FU_type_0::SimdFloatMult             0      0.00%     55.43% # Type of FU issued
system.cpu0.iq.FU_type_0::SimdFloatMultAcc            0      0.00%     55.43% # Type of FU issued
system.cpu0.iq.FU_type_0::SimdFloatSqrt             0      0.00%     55.43% # Type of FU issued
system.cpu0.iq.FU_type_0::SimdReduceAdd             0      0.00%     55.43% # Type of FU issued
system.cpu0.iq.FU_type_0::SimdReduceAlu             0      0.00%     55.43% # Type of FU issued
system.cpu0.iq.FU_type_0::SimdReduceCmp             0      0.00%     55.43% # Type of FU issued
system.cpu0.iq.FU_type_0::SimdFloatReduceAdd            0      0.00%     55.43% # Type of FU issued
system.cpu0.iq.FU_type_0::SimdFloatReduceCmp            0      0.00%     55.43% # Type of FU issued
system.cpu0.iq.FU_type_0::SimdAes                   0      0.00%     55.43% # Type of FU issued
system.cpu0.iq.FU_type_0::SimdAesMix                0      0.00%     55.43% # Type of FU issued
system.cpu0.iq.FU_type_0::SimdSha1Hash              0      0.00%     55.43% # Type of FU issued
system.cpu0.iq.FU_type_0::SimdSha1Hash2             0      0.00%     55.43% # Type of FU issued
system.cpu0.iq.FU_type_0::SimdSha256Hash            0      0.00%     55.43% # Type of FU issued
system.cpu0.iq.FU_type_0::SimdSha256Hash2            0      0.00%     55.43% # Type of FU issued
system.cpu0.iq.FU_type_0::SimdShaSigma2             0      0.00%     55.43% # Type of FU issued
system.cpu0.iq.FU_type_0::SimdShaSigma3             0      0.00%     55.43% # Type of FU issued
system.cpu0.iq.FU_type_0::SimdPredAlu               0      0.00%     55.43% # Type of FU issued
system.cpu0.iq.FU_type_0::MemRead           744879575     32.44%     87.86% # Type of FU issued
system.cpu0.iq.FU_type_0::MemWrite          278736053     12.14%    100.00% # Type of FU issued
=======
system.cpu0.fetch.Branches                  588438367                       # Number of branches that fetch encountered
system.cpu0.fetch.CacheLines                400625597                       # Number of cache lines fetched
system.cpu0.fetch.Cycles                   2321005826                       # Number of cycles fetch has run and was not squashing or blocked
system.cpu0.fetch.IcacheSquashes             11467312                       # Number of outstanding Icache misses that were squashed
system.cpu0.fetch.IcacheWaitRetryStallCycles          100                       # Number of stall cycles due to full MSHR
system.cpu0.fetch.Insts                    2396806657                       # Number of instructions fetch has processed
system.cpu0.fetch.MiscStallCycles                  16                       # Number of cycles fetch has spent waiting on interrupts, or bad addresses, or out of MSHRs
system.cpu0.fetch.PendingTrapStallCycles           48                       # Number of stall cycles due to pending traps
system.cpu0.fetch.SquashCycles               53336952                       # Number of cycles fetch has spent squashing
system.cpu0.fetch.branchRate                 0.108848                       # Number of branch fetches per cycle
system.cpu0.fetch.icacheStallCycles        1436846071                       # Number of cycles fetch is stalled on an Icache miss
system.cpu0.fetch.predictedBranches         336848341                       # Number of branches that fetch has predicted taken
system.cpu0.fetch.rate                       0.443354                       # Number of inst fetches per cycle
system.cpu0.fetch.rateDist::samples        3784520537                       # Number of instructions fetched each cycle (Total)
system.cpu0.fetch.rateDist::mean             0.634325                       # Number of instructions fetched each cycle (Total)
system.cpu0.fetch.rateDist::stdev            0.905632                       # Number of instructions fetched each cycle (Total)
system.cpu0.fetch.rateDist::underflows              0      0.00%      0.00% # Number of instructions fetched each cycle (Total)
system.cpu0.fetch.rateDist::0              2106099947     55.65%     55.65% # Number of instructions fetched each cycle (Total)
system.cpu0.fetch.rateDist::1              1234513974     32.62%     88.27% # Number of instructions fetched each cycle (Total)
system.cpu0.fetch.rateDist::2               231753212      6.12%     94.39% # Number of instructions fetched each cycle (Total)
system.cpu0.fetch.rateDist::3               168849647      4.46%     98.86% # Number of instructions fetched each cycle (Total)
system.cpu0.fetch.rateDist::4                32658808      0.86%     99.72% # Number of instructions fetched each cycle (Total)
system.cpu0.fetch.rateDist::5                 6074763      0.16%     99.88% # Number of instructions fetched each cycle (Total)
system.cpu0.fetch.rateDist::6                  762644      0.02%     99.90% # Number of instructions fetched each cycle (Total)
system.cpu0.fetch.rateDist::7                     422      0.00%     99.90% # Number of instructions fetched each cycle (Total)
system.cpu0.fetch.rateDist::8                 3807120      0.10%    100.00% # Number of instructions fetched each cycle (Total)
system.cpu0.fetch.rateDist::overflows               0      0.00%    100.00% # Number of instructions fetched each cycle (Total)
system.cpu0.fetch.rateDist::min_value               0                       # Number of instructions fetched each cycle (Total)
system.cpu0.fetch.rateDist::max_value               8                       # Number of instructions fetched each cycle (Total)
system.cpu0.fetch.rateDist::total          3784520537                       # Number of instructions fetched each cycle (Total)
system.cpu0.fp_regfile_reads                       44                       # number of floating regfile reads
system.cpu0.fp_regfile_writes                      23                       # number of floating regfile writes
system.cpu0.idleCycles                     1621553334                       # Total number of cycles that the CPU has spent unscheduled due to idling
system.cpu0.iew.branchMispredicts            17559504                       # Number of branch mispredicts detected at execute
system.cpu0.iew.exec_branches               567033282                       # Number of branches executed
system.cpu0.iew.exec_nop                            0                       # number of nop insts executed
system.cpu0.iew.exec_rate                    0.426903                       # Inst execution rate
system.cpu0.iew.exec_refs                  1007469340                       # number of memory reference insts executed
system.cpu0.iew.exec_stores                 276121313                       # Number of stores executed
system.cpu0.iew.exec_swp                            0                       # number of swp insts executed
system.cpu0.iew.iewBlockCycles              566767226                       # Number of cycles IEW is blocking
system.cpu0.iew.iewDispLoadInsts            728976023                       # Number of dispatched load instructions
system.cpu0.iew.iewDispNonSpecInsts           3810839                       # Number of dispatched non-speculative instructions
system.cpu0.iew.iewDispSquashedInsts          9150849                       # Number of squashed instructions skipped by dispatch
system.cpu0.iew.iewDispStoreInsts           277842378                       # Number of dispatched store instructions
system.cpu0.iew.iewDispatchedInsts         2320645056                       # Number of instructions dispatched to IQ
system.cpu0.iew.iewExecLoadInsts            731348027                       # Number of load instructions executed
system.cpu0.iew.iewExecSquashedInsts         10021252                       # Number of squashed instructions skipped in execute
system.cpu0.iew.iewExecutedInsts           2307869789                       # Number of executed instructions
system.cpu0.iew.iewIQFullEvents               3426621                       # Number of times the IQ has become full, causing a stall
system.cpu0.iew.iewIdleCycles                       0                       # Number of cycles IEW is idle
system.cpu0.iew.iewLSQFullEvents              6437921                       # Number of times the LSQ has become full, causing a stall
system.cpu0.iew.iewSquashCycles              17337070                       # Number of cycles IEW is squashing
system.cpu0.iew.iewUnblockCycles             13896883                       # Number of cycles IEW is unblocking
system.cpu0.iew.lsq.thread0.blockedLoads            0                       # Number of blocked loads due to partial load-store forwarding
system.cpu0.iew.lsq.thread0.cacheBlocked       251129                       # Number of times an access to memory failed due to the cache being blocked
system.cpu0.iew.lsq.thread0.forwLoads        37765234                       # Number of loads that had data forwarded from stores
system.cpu0.iew.lsq.thread0.ignoredResponses       149950                       # Number of memory responses ignored because the instruction is squashed
system.cpu0.iew.lsq.thread0.invAddrLoads            0                       # Number of loads ignored due to an invalid address
system.cpu0.iew.lsq.thread0.invAddrSwpfs            0                       # Number of software prefetches ignored due to an invalid address
system.cpu0.iew.lsq.thread0.memOrderViolation        12547                       # Number of memory ordering violations
system.cpu0.iew.lsq.thread0.rescheduledLoads      8869371                       # Number of loads that were rescheduled
system.cpu0.iew.lsq.thread0.squashedLoads     37440870                       # Number of loads squashed
system.cpu0.iew.lsq.thread0.squashedStores      9276314                       # Number of stores squashed
system.cpu0.iew.memOrderViolationEvents         12547                       # Number of memory order violations
system.cpu0.iew.predictedNotTakenIncorrect      2000738                       # Number of branches that were predicted not taken incorrectly
system.cpu0.iew.predictedTakenIncorrect      15558766                       # Number of branches that were predicted taken incorrectly
system.cpu0.iew.wb_consumers               1040848731                       # num instructions consuming a value
system.cpu0.iew.wb_count                   2291880345                       # cumulative count of insts written-back
system.cpu0.iew.wb_fanout                    0.840437                       # average fanout of values written-back
system.cpu0.iew.wb_producers                874767290                       # num instructions producing a value
system.cpu0.iew.wb_rate                      0.423945                       # insts written-back per cycle
system.cpu0.iew.wb_sent                    2292036491                       # cumulative count of insts sent to commit
system.cpu0.int_regfile_reads              2821818409                       # number of integer regfile reads
system.cpu0.int_regfile_writes             1465445724                       # number of integer regfile writes
system.cpu0.ipc                              0.411524                       # IPC: Instructions Per Cycle
system.cpu0.ipc_total                        0.411524                       # IPC: Total IPC of All Threads
system.cpu0.iq.FU_type_0::No_OpClass          7611767      0.33%      0.33% # Type of FU issued
system.cpu0.iq.FU_type_0::IntAlu           1276577238     55.07%     55.40% # Type of FU issued
system.cpu0.iq.FU_type_0::IntMult            18649263      0.80%     56.21% # Type of FU issued
system.cpu0.iq.FU_type_0::IntDiv              3802407      0.16%     56.37% # Type of FU issued
system.cpu0.iq.FU_type_0::FloatAdd                  0      0.00%     56.37% # Type of FU issued
system.cpu0.iq.FU_type_0::FloatCmp                  4      0.00%     56.37% # Type of FU issued
system.cpu0.iq.FU_type_0::FloatCvt                 12      0.00%     56.37% # Type of FU issued
system.cpu0.iq.FU_type_0::FloatMult                 0      0.00%     56.37% # Type of FU issued
system.cpu0.iq.FU_type_0::FloatMultAcc              0      0.00%     56.37% # Type of FU issued
system.cpu0.iq.FU_type_0::FloatDiv                  2      0.00%     56.37% # Type of FU issued
system.cpu0.iq.FU_type_0::FloatMisc                 4      0.00%     56.37% # Type of FU issued
system.cpu0.iq.FU_type_0::FloatSqrt                 0      0.00%     56.37% # Type of FU issued
system.cpu0.iq.FU_type_0::SimdAdd                   0      0.00%     56.37% # Type of FU issued
system.cpu0.iq.FU_type_0::SimdAddAcc                0      0.00%     56.37% # Type of FU issued
system.cpu0.iq.FU_type_0::SimdAlu                   0      0.00%     56.37% # Type of FU issued
system.cpu0.iq.FU_type_0::SimdCmp                   0      0.00%     56.37% # Type of FU issued
system.cpu0.iq.FU_type_0::SimdCvt                   0      0.00%     56.37% # Type of FU issued
system.cpu0.iq.FU_type_0::SimdMisc                  0      0.00%     56.37% # Type of FU issued
system.cpu0.iq.FU_type_0::SimdMult                  0      0.00%     56.37% # Type of FU issued
system.cpu0.iq.FU_type_0::SimdMultAcc               0      0.00%     56.37% # Type of FU issued
system.cpu0.iq.FU_type_0::SimdShift                 0      0.00%     56.37% # Type of FU issued
system.cpu0.iq.FU_type_0::SimdShiftAcc              0      0.00%     56.37% # Type of FU issued
system.cpu0.iq.FU_type_0::SimdDiv                   0      0.00%     56.37% # Type of FU issued
system.cpu0.iq.FU_type_0::SimdSqrt                  0      0.00%     56.37% # Type of FU issued
system.cpu0.iq.FU_type_0::SimdFloatAdd              0      0.00%     56.37% # Type of FU issued
system.cpu0.iq.FU_type_0::SimdFloatAlu              0      0.00%     56.37% # Type of FU issued
system.cpu0.iq.FU_type_0::SimdFloatCmp              0      0.00%     56.37% # Type of FU issued
system.cpu0.iq.FU_type_0::SimdFloatCvt              0      0.00%     56.37% # Type of FU issued
system.cpu0.iq.FU_type_0::SimdFloatDiv              0      0.00%     56.37% # Type of FU issued
system.cpu0.iq.FU_type_0::SimdFloatMisc             0      0.00%     56.37% # Type of FU issued
system.cpu0.iq.FU_type_0::SimdFloatMult             0      0.00%     56.37% # Type of FU issued
system.cpu0.iq.FU_type_0::SimdFloatMultAcc            0      0.00%     56.37% # Type of FU issued
system.cpu0.iq.FU_type_0::SimdFloatSqrt             0      0.00%     56.37% # Type of FU issued
system.cpu0.iq.FU_type_0::SimdReduceAdd             0      0.00%     56.37% # Type of FU issued
system.cpu0.iq.FU_type_0::SimdReduceAlu             0      0.00%     56.37% # Type of FU issued
system.cpu0.iq.FU_type_0::SimdReduceCmp             0      0.00%     56.37% # Type of FU issued
system.cpu0.iq.FU_type_0::SimdFloatReduceAdd            0      0.00%     56.37% # Type of FU issued
system.cpu0.iq.FU_type_0::SimdFloatReduceCmp            0      0.00%     56.37% # Type of FU issued
system.cpu0.iq.FU_type_0::SimdAes                   0      0.00%     56.37% # Type of FU issued
system.cpu0.iq.FU_type_0::SimdAesMix                0      0.00%     56.37% # Type of FU issued
system.cpu0.iq.FU_type_0::SimdSha1Hash              0      0.00%     56.37% # Type of FU issued
system.cpu0.iq.FU_type_0::SimdSha1Hash2             0      0.00%     56.37% # Type of FU issued
system.cpu0.iq.FU_type_0::SimdSha256Hash            0      0.00%     56.37% # Type of FU issued
system.cpu0.iq.FU_type_0::SimdSha256Hash2            0      0.00%     56.37% # Type of FU issued
system.cpu0.iq.FU_type_0::SimdShaSigma2             0      0.00%     56.37% # Type of FU issued
system.cpu0.iq.FU_type_0::SimdShaSigma3             0      0.00%     56.37% # Type of FU issued
system.cpu0.iq.FU_type_0::SimdPredAlu               0      0.00%     56.37% # Type of FU issued
system.cpu0.iq.FU_type_0::MemRead           738524405     31.86%     88.23% # Type of FU issued
system.cpu0.iq.FU_type_0::MemWrite          272725910     11.77%    100.00% # Type of FU issued
>>>>>>> 6be7a0502e78ebf80a09b838e3e9c0d652379c93
system.cpu0.iq.FU_type_0::FloatMemRead              9      0.00%    100.00% # Type of FU issued
system.cpu0.iq.FU_type_0::FloatMemWrite            20      0.00%    100.00% # Type of FU issued
system.cpu0.iq.FU_type_0::IprAccess                 0      0.00%    100.00% # Type of FU issued
system.cpu0.iq.FU_type_0::InstPrefetch              0      0.00%    100.00% # Type of FU issued
<<<<<<< HEAD
system.cpu0.iq.FU_type_0::total            2296433110                       # Type of FU issued
system.cpu0.iq.fp_alu_accesses                     55                       # Number of floating point alu accesses
system.cpu0.iq.fp_inst_queue_reads                106                       # Number of floating instruction queue reads
system.cpu0.iq.fp_inst_queue_wakeup_accesses           51                       # Number of floating instruction queue wakeup accesses
system.cpu0.iq.fp_inst_queue_writes                58                       # Number of floating instruction queue writes
system.cpu0.iq.fu_busy_cnt                    2599691                       # FU busy when requested
system.cpu0.iq.fu_busy_rate                  0.001132                       # FU busy rate (busy events/executed inst)
system.cpu0.iq.fu_full::No_OpClass                  0      0.00%      0.00% # attempts to use FU when none available
system.cpu0.iq.fu_full::IntAlu                 524112     20.16%     20.16% # attempts to use FU when none available
system.cpu0.iq.fu_full::IntMult                    22      0.00%     20.16% # attempts to use FU when none available
system.cpu0.iq.fu_full::IntDiv                      0      0.00%     20.16% # attempts to use FU when none available
system.cpu0.iq.fu_full::FloatAdd                    0      0.00%     20.16% # attempts to use FU when none available
system.cpu0.iq.fu_full::FloatCmp                    0      0.00%     20.16% # attempts to use FU when none available
system.cpu0.iq.fu_full::FloatCvt                    0      0.00%     20.16% # attempts to use FU when none available
system.cpu0.iq.fu_full::FloatMult                   0      0.00%     20.16% # attempts to use FU when none available
system.cpu0.iq.fu_full::FloatMultAcc                0      0.00%     20.16% # attempts to use FU when none available
system.cpu0.iq.fu_full::FloatDiv                    0      0.00%     20.16% # attempts to use FU when none available
system.cpu0.iq.fu_full::FloatMisc                   0      0.00%     20.16% # attempts to use FU when none available
system.cpu0.iq.fu_full::FloatSqrt                   0      0.00%     20.16% # attempts to use FU when none available
system.cpu0.iq.fu_full::SimdAdd                     0      0.00%     20.16% # attempts to use FU when none available
system.cpu0.iq.fu_full::SimdAddAcc                  0      0.00%     20.16% # attempts to use FU when none available
system.cpu0.iq.fu_full::SimdAlu                     0      0.00%     20.16% # attempts to use FU when none available
system.cpu0.iq.fu_full::SimdCmp                     0      0.00%     20.16% # attempts to use FU when none available
system.cpu0.iq.fu_full::SimdCvt                     0      0.00%     20.16% # attempts to use FU when none available
system.cpu0.iq.fu_full::SimdMisc                    0      0.00%     20.16% # attempts to use FU when none available
system.cpu0.iq.fu_full::SimdMult                    0      0.00%     20.16% # attempts to use FU when none available
system.cpu0.iq.fu_full::SimdMultAcc                 0      0.00%     20.16% # attempts to use FU when none available
system.cpu0.iq.fu_full::SimdShift                   0      0.00%     20.16% # attempts to use FU when none available
system.cpu0.iq.fu_full::SimdShiftAcc                0      0.00%     20.16% # attempts to use FU when none available
system.cpu0.iq.fu_full::SimdDiv                     0      0.00%     20.16% # attempts to use FU when none available
system.cpu0.iq.fu_full::SimdSqrt                    0      0.00%     20.16% # attempts to use FU when none available
system.cpu0.iq.fu_full::SimdFloatAdd                0      0.00%     20.16% # attempts to use FU when none available
system.cpu0.iq.fu_full::SimdFloatAlu                0      0.00%     20.16% # attempts to use FU when none available
system.cpu0.iq.fu_full::SimdFloatCmp                0      0.00%     20.16% # attempts to use FU when none available
system.cpu0.iq.fu_full::SimdFloatCvt                0      0.00%     20.16% # attempts to use FU when none available
system.cpu0.iq.fu_full::SimdFloatDiv                0      0.00%     20.16% # attempts to use FU when none available
system.cpu0.iq.fu_full::SimdFloatMisc               0      0.00%     20.16% # attempts to use FU when none available
system.cpu0.iq.fu_full::SimdFloatMult               0      0.00%     20.16% # attempts to use FU when none available
system.cpu0.iq.fu_full::SimdFloatMultAcc            0      0.00%     20.16% # attempts to use FU when none available
system.cpu0.iq.fu_full::SimdFloatSqrt               0      0.00%     20.16% # attempts to use FU when none available
system.cpu0.iq.fu_full::SimdReduceAdd               0      0.00%     20.16% # attempts to use FU when none available
system.cpu0.iq.fu_full::SimdReduceAlu               0      0.00%     20.16% # attempts to use FU when none available
system.cpu0.iq.fu_full::SimdReduceCmp               0      0.00%     20.16% # attempts to use FU when none available
system.cpu0.iq.fu_full::SimdFloatReduceAdd            0      0.00%     20.16% # attempts to use FU when none available
system.cpu0.iq.fu_full::SimdFloatReduceCmp            0      0.00%     20.16% # attempts to use FU when none available
system.cpu0.iq.fu_full::SimdAes                     0      0.00%     20.16% # attempts to use FU when none available
system.cpu0.iq.fu_full::SimdAesMix                  0      0.00%     20.16% # attempts to use FU when none available
system.cpu0.iq.fu_full::SimdSha1Hash                0      0.00%     20.16% # attempts to use FU when none available
system.cpu0.iq.fu_full::SimdSha1Hash2               0      0.00%     20.16% # attempts to use FU when none available
system.cpu0.iq.fu_full::SimdSha256Hash              0      0.00%     20.16% # attempts to use FU when none available
system.cpu0.iq.fu_full::SimdSha256Hash2             0      0.00%     20.16% # attempts to use FU when none available
system.cpu0.iq.fu_full::SimdShaSigma2               0      0.00%     20.16% # attempts to use FU when none available
system.cpu0.iq.fu_full::SimdShaSigma3               0      0.00%     20.16% # attempts to use FU when none available
system.cpu0.iq.fu_full::SimdPredAlu                 0      0.00%     20.16% # attempts to use FU when none available
system.cpu0.iq.fu_full::MemRead               1780512     68.49%     88.65% # attempts to use FU when none available
system.cpu0.iq.fu_full::MemWrite               295041     11.35%    100.00% # attempts to use FU when none available
=======
system.cpu0.iq.FU_type_0::total            2317891041                       # Type of FU issued
system.cpu0.iq.fp_alu_accesses                     55                       # Number of floating point alu accesses
system.cpu0.iq.fp_inst_queue_reads                106                       # Number of floating instruction queue reads
system.cpu0.iq.fp_inst_queue_wakeup_accesses           51                       # Number of floating instruction queue wakeup accesses
system.cpu0.iq.fp_inst_queue_writes                56                       # Number of floating instruction queue writes
system.cpu0.iq.fu_busy_cnt                    4600262                       # FU busy when requested
system.cpu0.iq.fu_busy_rate                  0.001985                       # FU busy rate (busy events/executed inst)
system.cpu0.iq.fu_full::No_OpClass                  0      0.00%      0.00% # attempts to use FU when none available
system.cpu0.iq.fu_full::IntAlu                 776160     16.87%     16.87% # attempts to use FU when none available
system.cpu0.iq.fu_full::IntMult                    29      0.00%     16.87% # attempts to use FU when none available
system.cpu0.iq.fu_full::IntDiv                      0      0.00%     16.87% # attempts to use FU when none available
system.cpu0.iq.fu_full::FloatAdd                    0      0.00%     16.87% # attempts to use FU when none available
system.cpu0.iq.fu_full::FloatCmp                    0      0.00%     16.87% # attempts to use FU when none available
system.cpu0.iq.fu_full::FloatCvt                    0      0.00%     16.87% # attempts to use FU when none available
system.cpu0.iq.fu_full::FloatMult                   0      0.00%     16.87% # attempts to use FU when none available
system.cpu0.iq.fu_full::FloatMultAcc                0      0.00%     16.87% # attempts to use FU when none available
system.cpu0.iq.fu_full::FloatDiv                    0      0.00%     16.87% # attempts to use FU when none available
system.cpu0.iq.fu_full::FloatMisc                   0      0.00%     16.87% # attempts to use FU when none available
system.cpu0.iq.fu_full::FloatSqrt                   0      0.00%     16.87% # attempts to use FU when none available
system.cpu0.iq.fu_full::SimdAdd                     0      0.00%     16.87% # attempts to use FU when none available
system.cpu0.iq.fu_full::SimdAddAcc                  0      0.00%     16.87% # attempts to use FU when none available
system.cpu0.iq.fu_full::SimdAlu                     0      0.00%     16.87% # attempts to use FU when none available
system.cpu0.iq.fu_full::SimdCmp                     0      0.00%     16.87% # attempts to use FU when none available
system.cpu0.iq.fu_full::SimdCvt                     0      0.00%     16.87% # attempts to use FU when none available
system.cpu0.iq.fu_full::SimdMisc                    0      0.00%     16.87% # attempts to use FU when none available
system.cpu0.iq.fu_full::SimdMult                    0      0.00%     16.87% # attempts to use FU when none available
system.cpu0.iq.fu_full::SimdMultAcc                 0      0.00%     16.87% # attempts to use FU when none available
system.cpu0.iq.fu_full::SimdShift                   0      0.00%     16.87% # attempts to use FU when none available
system.cpu0.iq.fu_full::SimdShiftAcc                0      0.00%     16.87% # attempts to use FU when none available
system.cpu0.iq.fu_full::SimdDiv                     0      0.00%     16.87% # attempts to use FU when none available
system.cpu0.iq.fu_full::SimdSqrt                    0      0.00%     16.87% # attempts to use FU when none available
system.cpu0.iq.fu_full::SimdFloatAdd                0      0.00%     16.87% # attempts to use FU when none available
system.cpu0.iq.fu_full::SimdFloatAlu                0      0.00%     16.87% # attempts to use FU when none available
system.cpu0.iq.fu_full::SimdFloatCmp                0      0.00%     16.87% # attempts to use FU when none available
system.cpu0.iq.fu_full::SimdFloatCvt                0      0.00%     16.87% # attempts to use FU when none available
system.cpu0.iq.fu_full::SimdFloatDiv                0      0.00%     16.87% # attempts to use FU when none available
system.cpu0.iq.fu_full::SimdFloatMisc               0      0.00%     16.87% # attempts to use FU when none available
system.cpu0.iq.fu_full::SimdFloatMult               0      0.00%     16.87% # attempts to use FU when none available
system.cpu0.iq.fu_full::SimdFloatMultAcc            0      0.00%     16.87% # attempts to use FU when none available
system.cpu0.iq.fu_full::SimdFloatSqrt               0      0.00%     16.87% # attempts to use FU when none available
system.cpu0.iq.fu_full::SimdReduceAdd               0      0.00%     16.87% # attempts to use FU when none available
system.cpu0.iq.fu_full::SimdReduceAlu               0      0.00%     16.87% # attempts to use FU when none available
system.cpu0.iq.fu_full::SimdReduceCmp               0      0.00%     16.87% # attempts to use FU when none available
system.cpu0.iq.fu_full::SimdFloatReduceAdd            0      0.00%     16.87% # attempts to use FU when none available
system.cpu0.iq.fu_full::SimdFloatReduceCmp            0      0.00%     16.87% # attempts to use FU when none available
system.cpu0.iq.fu_full::SimdAes                     0      0.00%     16.87% # attempts to use FU when none available
system.cpu0.iq.fu_full::SimdAesMix                  0      0.00%     16.87% # attempts to use FU when none available
system.cpu0.iq.fu_full::SimdSha1Hash                0      0.00%     16.87% # attempts to use FU when none available
system.cpu0.iq.fu_full::SimdSha1Hash2               0      0.00%     16.87% # attempts to use FU when none available
system.cpu0.iq.fu_full::SimdSha256Hash              0      0.00%     16.87% # attempts to use FU when none available
system.cpu0.iq.fu_full::SimdSha256Hash2             0      0.00%     16.87% # attempts to use FU when none available
system.cpu0.iq.fu_full::SimdShaSigma2               0      0.00%     16.87% # attempts to use FU when none available
system.cpu0.iq.fu_full::SimdShaSigma3               0      0.00%     16.87% # attempts to use FU when none available
system.cpu0.iq.fu_full::SimdPredAlu                 0      0.00%     16.87% # attempts to use FU when none available
system.cpu0.iq.fu_full::MemRead               3349937     72.82%     89.69% # attempts to use FU when none available
system.cpu0.iq.fu_full::MemWrite               474132     10.31%    100.00% # attempts to use FU when none available
>>>>>>> 6be7a0502e78ebf80a09b838e3e9c0d652379c93
system.cpu0.iq.fu_full::FloatMemRead                0      0.00%    100.00% # attempts to use FU when none available
system.cpu0.iq.fu_full::FloatMemWrite               4      0.00%    100.00% # attempts to use FU when none available
system.cpu0.iq.fu_full::IprAccess                   0      0.00%    100.00% # attempts to use FU when none available
system.cpu0.iq.fu_full::InstPrefetch                0      0.00%    100.00% # attempts to use FU when none available
<<<<<<< HEAD
system.cpu0.iq.int_alu_accesses            2295222051                       # Number of integer alu accesses
system.cpu0.iq.int_inst_queue_reads        8084531824                       # Number of integer instruction queue reads
system.cpu0.iq.int_inst_queue_wakeup_accesses   2270636730                       # Number of integer instruction queue wakeup accesses
system.cpu0.iq.int_inst_queue_writes       2447023444                       # Number of integer instruction queue writes
system.cpu0.iq.iqInstsAdded                2289927298                       # Number of instructions added to the IQ (excludes non-spec)
system.cpu0.iq.iqInstsIssued               2296433110                       # Number of instructions issued
system.cpu0.iq.iqNonSpecInstsAdded            5718531                       # Number of non-speculative instructions added to the IQ
system.cpu0.iq.iqSquashedInstsExamined      151365227                       # Number of squashed instructions iterated over during squash; mainly for profiling
system.cpu0.iq.iqSquashedInstsIssued           186725                       # Number of squashed instructions issued
system.cpu0.iq.iqSquashedNonSpecRemoved           557                       # Number of squashed non-spec instructions that were removed
system.cpu0.iq.iqSquashedOperandsExamined     25421876                       # Number of squashed operands that are examined and possibly removed from graph
system.cpu0.iq.issued_per_cycle::samples   3488879294                       # Number of insts issued each cycle
system.cpu0.iq.issued_per_cycle::mean        0.658215                       # Number of insts issued each cycle
system.cpu0.iq.issued_per_cycle::stdev       0.858538                       # Number of insts issued each cycle
system.cpu0.iq.issued_per_cycle::underflows            0      0.00%      0.00% # Number of insts issued each cycle
system.cpu0.iq.issued_per_cycle::0         1883372524     53.98%     53.98% # Number of insts issued each cycle
system.cpu0.iq.issued_per_cycle::1         1084379797     31.08%     85.06% # Number of insts issued each cycle
system.cpu0.iq.issued_per_cycle::2          376550161     10.79%     95.86% # Number of insts issued each cycle
system.cpu0.iq.issued_per_cycle::3          123970643      3.55%     99.41% # Number of insts issued each cycle
system.cpu0.iq.issued_per_cycle::4           18044210      0.52%     99.93% # Number of insts issued each cycle
system.cpu0.iq.issued_per_cycle::5            1103051      0.03%     99.96% # Number of insts issued each cycle
system.cpu0.iq.issued_per_cycle::6            1009065      0.03%     99.99% # Number of insts issued each cycle
system.cpu0.iq.issued_per_cycle::7             304167      0.01%    100.00% # Number of insts issued each cycle
system.cpu0.iq.issued_per_cycle::8             145676      0.00%    100.00% # Number of insts issued each cycle
system.cpu0.iq.issued_per_cycle::overflows            0      0.00%    100.00% # Number of insts issued each cycle
system.cpu0.iq.issued_per_cycle::min_value            0                       # Number of insts issued each cycle
system.cpu0.iq.issued_per_cycle::max_value            8                       # Number of insts issued each cycle
system.cpu0.iq.issued_per_cycle::total     3488879294                       # Number of insts issued each cycle
system.cpu0.iq.rate                          0.509090                       # Inst issue rate
=======
system.cpu0.iq.int_alu_accesses            2314879481                       # Number of integer alu accesses
system.cpu0.iq.int_inst_queue_reads        8425218571                       # Number of integer instruction queue reads
system.cpu0.iq.int_inst_queue_wakeup_accesses   2291880294                       # Number of integer instruction queue wakeup accesses
system.cpu0.iq.int_inst_queue_writes       2412765640                       # Number of integer instruction queue writes
system.cpu0.iq.iqInstsAdded                2309225099                       # Number of instructions added to the IQ (excludes non-spec)
system.cpu0.iq.iqInstsIssued               2317891041                       # Number of instructions issued
system.cpu0.iq.iqNonSpecInstsAdded           11419957                       # Number of non-speculative instructions added to the IQ
system.cpu0.iq.iqSquashedInstsExamined       92109483                       # Number of squashed instructions iterated over during squash; mainly for profiling
system.cpu0.iq.iqSquashedInstsIssued           315796                       # Number of squashed instructions issued
system.cpu0.iq.iqSquashedNonSpecRemoved           460                       # Number of squashed non-spec instructions that were removed
system.cpu0.iq.iqSquashedOperandsExamined     29033416                       # Number of squashed operands that are examined and possibly removed from graph
system.cpu0.iq.issued_per_cycle::samples   3784520537                       # Number of insts issued each cycle
system.cpu0.iq.issued_per_cycle::mean        0.612466                       # Number of insts issued each cycle
system.cpu0.iq.issued_per_cycle::stdev       0.845992                       # Number of insts issued each cycle
system.cpu0.iq.issued_per_cycle::underflows            0      0.00%      0.00% # Number of insts issued each cycle
system.cpu0.iq.issued_per_cycle::0         2162168417     57.13%     57.13% # Number of insts issued each cycle
system.cpu0.iq.issued_per_cycle::1         1099650315     29.06%     86.19% # Number of insts issued each cycle
system.cpu0.iq.issued_per_cycle::2          375803334      9.93%     96.12% # Number of insts issued each cycle
system.cpu0.iq.issued_per_cycle::3          127545877      3.37%     99.49% # Number of insts issued each cycle
system.cpu0.iq.issued_per_cycle::4           15832462      0.42%     99.91% # Number of insts issued each cycle
system.cpu0.iq.issued_per_cycle::5            1399914      0.04%     99.94% # Number of insts issued each cycle
system.cpu0.iq.issued_per_cycle::6            1426112      0.04%     99.98% # Number of insts issued each cycle
system.cpu0.iq.issued_per_cycle::7             442511      0.01%     99.99% # Number of insts issued each cycle
system.cpu0.iq.issued_per_cycle::8             251595      0.01%    100.00% # Number of insts issued each cycle
system.cpu0.iq.issued_per_cycle::overflows            0      0.00%    100.00% # Number of insts issued each cycle
system.cpu0.iq.issued_per_cycle::min_value            0                       # Number of insts issued each cycle
system.cpu0.iq.issued_per_cycle::max_value            8                       # Number of insts issued each cycle
system.cpu0.iq.issued_per_cycle::total     3784520537                       # Number of insts issued each cycle
system.cpu0.iq.rate                          0.428757                       # Inst issue rate
>>>>>>> 6be7a0502e78ebf80a09b838e3e9c0d652379c93
system.cpu0.iq.vec_alu_accesses                     0                       # Number of vector alu accesses
system.cpu0.iq.vec_inst_queue_reads                 0                       # Number of vector instruction queue reads
system.cpu0.iq.vec_inst_queue_wakeup_accesses            0                       # Number of vector instruction queue wakeup accesses
system.cpu0.iq.vec_inst_queue_writes                0                       # Number of vector instruction queue writes
system.cpu0.itb.accesses                            0                       # DTB accesses
system.cpu0.itb.hits                                0                       # DTB hits
system.cpu0.itb.misses                              0                       # DTB misses
system.cpu0.itb.read_accesses                       0                       # DTB read accesses
system.cpu0.itb.read_hits                           0                       # DTB read hits
system.cpu0.itb.read_misses                         0                       # DTB read misses
system.cpu0.itb.write_accesses                      0                       # DTB write accesses
system.cpu0.itb.write_hits                          0                       # DTB write hits
system.cpu0.itb.write_misses                        0                       # DTB write misses
<<<<<<< HEAD
system.cpu0.memDep0.conflictingLoads         20909877                       # Number of conflicting loads.
system.cpu0.memDep0.conflictingStores         3344906                       # Number of conflicting stores.
system.cpu0.memDep0.insertedLoads           736453403                       # Number of loads inserted to the mem dependence unit.
[...]
system.cpu1.dcache.WriteReq_mshr_miss_rate::total     0.048073                       # mshr miss rate for WriteReq accesses
system.cpu1.dcache.WriteReq_avg_mshr_miss_latency::.cpu1.data 55905.662467                       # average WriteReq mshr miss latency
system.cpu1.dcache.WriteReq_avg_mshr_miss_latency::total 55905.662467                       # average WriteReq mshr miss latency
system.cpu1.dcache.LoadLockedReq_hits::.cpu1.data       137815                       # number of LoadLockedReq hits
system.cpu1.dcache.LoadLockedReq_hits::total       137815                       # number of LoadLockedReq hits
system.cpu1.dcache.LoadLockedReq_misses::.cpu1.data          808                       # number of LoadLockedReq misses
system.cpu1.dcache.LoadLockedReq_misses::total          808                       # number of LoadLockedReq misses
system.cpu1.dcache.LoadLockedReq_miss_latency::.cpu1.data     44827000                       # number of LoadLockedReq miss cycles
system.cpu1.dcache.LoadLockedReq_miss_latency::total     44827000                       # number of LoadLockedReq miss cycles
system.cpu1.dcache.LoadLockedReq_accesses::.cpu1.data       138623                       # number of LoadLockedReq accesses(hits+misses)
system.cpu1.dcache.LoadLockedReq_accesses::total       138623                       # number of LoadLockedReq accesses(hits+misses)
system.cpu1.dcache.LoadLockedReq_miss_rate::.cpu1.data     0.005829                       # miss rate for LoadLockedReq accesses
system.cpu1.dcache.LoadLockedReq_miss_rate::total     0.005829                       # miss rate for LoadLockedReq accesses
system.cpu1.dcache.LoadLockedReq_avg_miss_latency::.cpu1.data 55478.960396                       # average LoadLockedReq miss latency
system.cpu1.dcache.LoadLockedReq_avg_miss_latency::total 55478.960396                       # average LoadLockedReq miss latency
system.cpu1.dcache.LoadLockedReq_mshr_hits::.cpu1.data          337                       # number of LoadLockedReq MSHR hits
system.cpu1.dcache.LoadLockedReq_mshr_hits::total          337                       # number of LoadLockedReq MSHR hits
system.cpu1.dcache.LoadLockedReq_mshr_misses::.cpu1.data          471                       # number of LoadLockedReq MSHR misses
system.cpu1.dcache.LoadLockedReq_mshr_misses::total          471                       # number of LoadLockedReq MSHR misses
system.cpu1.dcache.LoadLockedReq_mshr_miss_latency::.cpu1.data     23772000                       # number of LoadLockedReq MSHR miss cycles
system.cpu1.dcache.LoadLockedReq_mshr_miss_latency::total     23772000                       # number of LoadLockedReq MSHR miss cycles
system.cpu1.dcache.LoadLockedReq_mshr_miss_rate::.cpu1.data     0.003398                       # mshr miss rate for LoadLockedReq accesses
system.cpu1.dcache.LoadLockedReq_mshr_miss_rate::total     0.003398                       # mshr miss rate for LoadLockedReq accesses
system.cpu1.dcache.LoadLockedReq_avg_mshr_miss_latency::.cpu1.data 50471.337580                       # average LoadLockedReq mshr miss latency
system.cpu1.dcache.LoadLockedReq_avg_mshr_miss_latency::total 50471.337580                       # average LoadLockedReq mshr miss latency
system.cpu1.dcache.StoreCondReq_hits::.cpu1.data       136356                       # number of StoreCondReq hits
system.cpu1.dcache.StoreCondReq_hits::total       136356                       # number of StoreCondReq hits
system.cpu1.dcache.StoreCondReq_misses::.cpu1.data         2063                       # number of StoreCondReq misses
system.cpu1.dcache.StoreCondReq_misses::total         2063                       # number of StoreCondReq misses
system.cpu1.dcache.StoreCondReq_miss_latency::.cpu1.data     14830500                       # number of StoreCondReq miss cycles
system.cpu1.dcache.StoreCondReq_miss_latency::total     14830500                       # number of StoreCondReq miss cycles
system.cpu1.dcache.StoreCondReq_accesses::.cpu1.data       138419                       # number of StoreCondReq accesses(hits+misses)
system.cpu1.dcache.StoreCondReq_accesses::total       138419                       # number of StoreCondReq accesses(hits+misses)
system.cpu1.dcache.StoreCondReq_miss_rate::.cpu1.data     0.014904                       # miss rate for StoreCondReq accesses
system.cpu1.dcache.StoreCondReq_miss_rate::total     0.014904                       # miss rate for StoreCondReq accesses
system.cpu1.dcache.StoreCondReq_avg_miss_latency::.cpu1.data  7188.802714                       # average StoreCondReq miss latency
system.cpu1.dcache.StoreCondReq_avg_miss_latency::total  7188.802714                       # average StoreCondReq miss latency
system.cpu1.dcache.StoreCondReq_mshr_misses::.cpu1.data         2028                       # number of StoreCondReq MSHR misses
system.cpu1.dcache.StoreCondReq_mshr_misses::total         2028                       # number of StoreCondReq MSHR misses
system.cpu1.dcache.StoreCondReq_mshr_miss_latency::.cpu1.data     12812500                       # number of StoreCondReq MSHR miss cycles
system.cpu1.dcache.StoreCondReq_mshr_miss_latency::total     12812500                       # number of StoreCondReq MSHR miss cycles
system.cpu1.dcache.StoreCondReq_mshr_miss_rate::.cpu1.data     0.014651                       # mshr miss rate for StoreCondReq accesses
system.cpu1.dcache.StoreCondReq_mshr_miss_rate::total     0.014651                       # mshr miss rate for StoreCondReq accesses
system.cpu1.dcache.StoreCondReq_avg_mshr_miss_latency::.cpu1.data  6317.800789                       # average StoreCondReq mshr miss latency
system.cpu1.dcache.StoreCondReq_avg_mshr_miss_latency::total  6317.800789                       # average StoreCondReq mshr miss latency
system.cpu1.dcache.StoreCondFailReq_miss_latency::.cpu1.data       208000                       # number of StoreCondFailReq miss cycles
system.cpu1.dcache.StoreCondFailReq_miss_latency::total       208000                       # number of StoreCondFailReq miss cycles
system.cpu1.dcache.StoreCondFailReq_avg_miss_latency::.cpu1.data          inf                       # average StoreCondFailReq miss latency
system.cpu1.dcache.StoreCondFailReq_avg_miss_latency::total          inf                       # average StoreCondFailReq miss latency
system.cpu1.dcache.StoreCondFailReq_mshr_miss_latency::.cpu1.data       198000                       # number of StoreCondFailReq MSHR miss cycles
system.cpu1.dcache.StoreCondFailReq_mshr_miss_latency::total       198000                       # number of StoreCondFailReq MSHR miss cycles
system.cpu1.dcache.StoreCondFailReq_avg_mshr_miss_latency::.cpu1.data          inf                       # average StoreCondFailReq mshr miss latency
system.cpu1.dcache.StoreCondFailReq_avg_mshr_miss_latency::total          inf                       # average StoreCondFailReq mshr miss latency
system.cpu1.dcache.SwapReq_hits::.cpu1.data         1827                       # number of SwapReq hits
system.cpu1.dcache.SwapReq_hits::total           1827                       # number of SwapReq hits
system.cpu1.dcache.SwapReq_misses::.cpu1.data         7097                       # number of SwapReq misses
system.cpu1.dcache.SwapReq_misses::total         7097                       # number of SwapReq misses
system.cpu1.dcache.SwapReq_miss_latency::.cpu1.data    345777500                       # number of SwapReq miss cycles
system.cpu1.dcache.SwapReq_miss_latency::total    345777500                       # number of SwapReq miss cycles
system.cpu1.dcache.SwapReq_accesses::.cpu1.data         8924                       # number of SwapReq accesses(hits+misses)
system.cpu1.dcache.SwapReq_accesses::total         8924                       # number of SwapReq accesses(hits+misses)
system.cpu1.dcache.SwapReq_miss_rate::.cpu1.data     0.795271                       # miss rate for SwapReq accesses
system.cpu1.dcache.SwapReq_miss_rate::total     0.795271                       # miss rate for SwapReq accesses
system.cpu1.dcache.SwapReq_avg_miss_latency::.cpu1.data 48721.642948                       # average SwapReq miss latency
system.cpu1.dcache.SwapReq_avg_miss_latency::total 48721.642948                       # average SwapReq miss latency
system.cpu1.dcache.SwapReq_mshr_misses::.cpu1.data         7097                       # number of SwapReq MSHR misses
system.cpu1.dcache.SwapReq_mshr_misses::total         7097                       # number of SwapReq MSHR misses
system.cpu1.dcache.SwapReq_mshr_miss_latency::.cpu1.data    338680500                       # number of SwapReq MSHR miss cycles
system.cpu1.dcache.SwapReq_mshr_miss_latency::total    338680500                       # number of SwapReq MSHR miss cycles
system.cpu1.dcache.SwapReq_mshr_miss_rate::.cpu1.data     0.795271                       # mshr miss rate for SwapReq accesses
system.cpu1.dcache.SwapReq_mshr_miss_rate::total     0.795271                       # mshr miss rate for SwapReq accesses
system.cpu1.dcache.SwapReq_avg_mshr_miss_latency::.cpu1.data 47721.642948                       # average SwapReq mshr miss latency
system.cpu1.dcache.SwapReq_avg_mshr_miss_latency::total 47721.642948                       # average SwapReq mshr miss latency
system.cpu1.dcache.tags.pwrStateResidencyTicks::UNDEFINED 222029446500                       # Cumulative time (in ticks) in various power states
system.cpu1.dcache.tags.tagsinuse           31.569368                       # Cycle average of tags in use
system.cpu1.dcache.tags.total_refs           48892394                       # Total number of references to valid blocks.
system.cpu1.dcache.tags.sampled_refs          5420748                       # Sample count of references to valid blocks.
system.cpu1.dcache.tags.avg_refs             9.019492                       # Average number of references to valid blocks.
system.cpu1.dcache.tags.warmup_cycle                0                       # Cycle when the warmup percentage was hit.
system.cpu1.dcache.tags.occ_blocks::.cpu1.data    31.569368                       # Average occupied blocks per requestor
system.cpu1.dcache.tags.occ_percent::.cpu1.data     0.986543                       # Average percentage of cache occupancy
system.cpu1.dcache.tags.occ_percent::total     0.986543                       # Average percentage of cache occupancy
system.cpu1.dcache.tags.occ_task_id_blocks::1024           28                       # Occupied blocks per task id
system.cpu1.dcache.tags.age_task_id_blocks_1024::1           28                       # Occupied blocks per task id
system.cpu1.dcache.tags.occ_task_id_percent::1024     0.875000                       # Percentage of cache occupancy per task id
system.cpu1.dcache.tags.tag_accesses        133005808                       # Number of tag accesses
system.cpu1.dcache.tags.data_accesses       133005808                       # Number of data accesses
system.cpu_clk_domain.clock                       500                       # Clock period in ticks
system.tol2bus.pwrStateResidencyTicks::UNDEFINED 222029446500                       # Cumulative time (in ticks) in various power states
system.tol2bus.trans_dist::ReadResp          10810164                       # Transaction distribution
system.tol2bus.trans_dist::WritebackDirty      2069084                       # Transaction distribution
system.tol2bus.trans_dist::WritebackClean      9825760                       # Transaction distribution
system.tol2bus.trans_dist::CleanEvict        19764677                       # Transaction distribution
system.tol2bus.trans_dist::HardPFReq         10167767                       # Transaction distribution
system.tol2bus.trans_dist::HardPFResp               1                       # Transaction distribution
system.tol2bus.trans_dist::UpgradeReq          123420                       # Transaction distribution
system.tol2bus.trans_dist::SCUpgradeReq          4260                       # Transaction distribution
system.tol2bus.trans_dist::UpgradeResp         127680                       # Transaction distribution
system.tol2bus.trans_dist::SCUpgradeFailReq           16                       # Transaction distribution
system.tol2bus.trans_dist::UpgradeFailResp           16                       # Transaction distribution
system.tol2bus.trans_dist::ReadExReq           407563                       # Transaction distribution
system.tol2bus.trans_dist::ReadExResp          407563                       # Transaction distribution
system.tol2bus.trans_dist::ReadCleanReq        142786                       # Transaction distribution
system.tol2bus.trans_dist::ReadSharedReq     10667377                       # Transaction distribution
system.tol2bus.trans_dist::InvalidateReq         4341                       # Transaction distribution
system.tol2bus.trans_dist::InvalidateResp         4341                       # Transaction distribution
system.tol2bus.pkt_count_system.cpu0.icache.mem_side::system.l2.cpu_side       355024                       # Packet count per connected master and slave (bytes)
system.tol2bus.pkt_count_system.cpu0.dcache.mem_side::system.l2.cpu_side     16879210                       # Packet count per connected master and slave (bytes)
system.tol2bus.pkt_count_system.cpu1.icache.mem_side::system.l2.cpu_side        73332                       # Packet count per connected master and slave (bytes)
system.tol2bus.pkt_count_system.cpu1.dcache.mem_side::system.l2.cpu_side     16164814                       # Packet count per connected master and slave (bytes)
system.tol2bus.pkt_count::total              33472380                       # Packet count per connected master and slave (bytes)
system.tol2bus.pkt_size_system.cpu0.icache.mem_side::system.l2.cpu_side     15147648                       # Cumulative packet size per connected master and slave (bytes)
system.tol2bus.pkt_size_system.cpu0.dcache.mem_side::system.l2.cpu_side    712975424                       # Cumulative packet size per connected master and slave (bytes)
system.tol2bus.pkt_size_system.cpu1.icache.mem_side::system.l2.cpu_side      3128832                       # Cumulative packet size per connected master and slave (bytes)
system.tol2bus.pkt_size_system.cpu1.dcache.mem_side::system.l2.cpu_side    682769728                       # Cumulative packet size per connected master and slave (bytes)
system.tol2bus.pkt_size::total             1414021632                       # Cumulative packet size per connected master and slave (bytes)
system.tol2bus.snoops                        31054437                       # Total snoops (count)
system.tol2bus.snoopTraffic                  65184064                       # Total snoop traffic (bytes)
system.tol2bus.snoop_fanout::samples         42126963                       # Request fanout histogram
system.tol2bus.snoop_fanout::mean            0.230816                       # Request fanout histogram
system.tol2bus.snoop_fanout::stdev           0.442923                       # Request fanout histogram
system.tol2bus.snoop_fanout::underflows             0      0.00%      0.00% # Request fanout histogram
system.tol2bus.snoop_fanout::0               32795852     77.85%     77.85% # Request fanout histogram
system.tol2bus.snoop_fanout::1                8938810     21.22%     99.07% # Request fanout histogram
system.tol2bus.snoop_fanout::2                 392135      0.93%    100.00% # Request fanout histogram
system.tol2bus.snoop_fanout::3                    166      0.00%    100.00% # Request fanout histogram
system.tol2bus.snoop_fanout::4                      0      0.00%    100.00% # Request fanout histogram
>>>>>>> 6be7a0502e78ebf80a09b838e3e9c0d652379c93
system.tol2bus.snoop_fanout::5                      0      0.00%    100.00% # Request fanout histogram
system.tol2bus.snoop_fanout::6                      0      0.00%    100.00% # Request fanout histogram
system.tol2bus.snoop_fanout::7                      0      0.00%    100.00% # Request fanout histogram
system.tol2bus.snoop_fanout::8                      0      0.00%    100.00% # Request fanout histogram
system.tol2bus.snoop_fanout::overflows              0      0.00%    100.00% # Request fanout histogram
system.tol2bus.snoop_fanout::min_value              0                       # Request fanout histogram
<<<<<<< HEAD
system.tol2bus.snoop_fanout::max_value              4                       # Request fanout histogram
system.tol2bus.snoop_fanout::total           35959827                       # Request fanout histogram
system.tol2bus.reqLayer0.occupancy        22429031325                       # Layer occupancy (ticks)
system.tol2bus.reqLayer0.utilization             16.1                       # Layer utilization (%)
system.tol2bus.respLayer5.occupancy        4088170872                       # Layer occupancy (ticks)
system.tol2bus.respLayer5.utilization             2.9                       # Layer utilization (%)
system.tol2bus.respLayer4.occupancy          41151576                       # Layer occupancy (ticks)
system.tol2bus.respLayer4.utilization             0.0                       # Layer utilization (%)
system.tol2bus.respLayer7.occupancy        4094438238                       # Layer occupancy (ticks)
system.tol2bus.respLayer7.utilization             2.9                       # Layer utilization (%)
system.tol2bus.respLayer6.occupancy          41293806                       # Layer occupancy (ticks)
system.tol2bus.respLayer6.utilization             0.0                       # Layer utilization (%)
system.tol2bus.respLayer1.occupancy        4362238474                       # Layer occupancy (ticks)
system.tol2bus.respLayer1.utilization             3.1                       # Layer utilization (%)
system.tol2bus.respLayer0.occupancy         181804751                       # Layer occupancy (ticks)
system.tol2bus.respLayer0.utilization             0.1                       # Layer utilization (%)
system.tol2bus.respLayer3.occupancy        4115238096                       # Layer occupancy (ticks)
system.tol2bus.respLayer3.utilization             3.0                       # Layer utilization (%)
system.tol2bus.respLayer2.occupancy          41160373                       # Layer occupancy (ticks)
system.tol2bus.respLayer2.utilization             0.0                       # Layer utilization (%)
system.tol2bus.snoopLayer0.occupancy             9002                       # Layer occupancy (ticks)
=======
system.tol2bus.snoop_fanout::max_value              3                       # Request fanout histogram
system.tol2bus.snoop_fanout::total           42126963                       # Request fanout histogram
system.tol2bus.reqLayer0.occupancy        22255820835                       # Layer occupancy (ticks)
system.tol2bus.reqLayer0.utilization             10.0                       # Layer utilization (%)
system.tol2bus.respLayer1.occupancy        8534899013                       # Layer occupancy (ticks)
system.tol2bus.respLayer1.utilization             3.8                       # Layer utilization (%)
system.tol2bus.respLayer0.occupancy         177641745                       # Layer occupancy (ticks)
system.tol2bus.respLayer0.utilization             0.1                       # Layer utilization (%)
system.tol2bus.respLayer3.occupancy        8182355064                       # Layer occupancy (ticks)
system.tol2bus.respLayer3.utilization             3.7                       # Layer utilization (%)
system.tol2bus.respLayer2.occupancy          36865101                       # Layer occupancy (ticks)
system.tol2bus.respLayer2.utilization             0.0                       # Layer utilization (%)
system.tol2bus.snoopLayer0.occupancy             1501                       # Layer occupancy (ticks)
>>>>>>> 6be7a0502e78ebf80a09b838e3e9c0d652379c93
system.tol2bus.snoopLayer0.utilization            0.0                       # Layer utilization (%)

---------- End Simulation Statistics   ----------
