
---------- Begin Simulation Statistics ----------
final_tick                               1020817149000                       # Number of ticks from beginning of simulation (restored from checkpoints and never reset)
host_inst_rate                                  59024                       # Simulator instruction rate (inst/s)
host_mem_usage                                 701948                       # Number of bytes of host memory used
host_op_rate                                    59217                       # Simulator op (including micro ops) rate (op/s)
host_seconds                                 18731.46                       # Real time elapsed on the host
host_tick_rate                               54497466                       # Simulator tick rate (ticks/s)
sim_freq                                 1000000000000                       # Frequency of simulated ticks
sim_insts                                  1105597176                       # Number of instructions simulated
sim_ops                                    1109222529                       # Number of ops (including micro ops) simulated
sim_seconds                                  1.020817                       # Number of seconds simulated
sim_ticks                                1020817149000                       # Number of ticks simulated
system.cpu0.branchPred.BTBCorrect                   0                       # Number of correct BTB predictions (this stat may not work properly.
system.cpu0.branchPred.BTBHitPct            87.883716                       # BTB Hit Percentage
system.cpu0.branchPred.BTBHits              142998058                       # Number of BTB hits
system.cpu0.branchPred.BTBLookups           162712803                       # Number of BTB lookups
system.cpu0.branchPred.RASInCorrect                 0                       # Number of incorrect RAS predictions.
system.cpu0.branchPred.condIncorrect         13976891                       # Number of conditional branches incorrect
system.cpu0.branchPred.condPredicted        229161080                       # Number of conditional branches predicted
system.cpu0.branchPred.indirectHits          18169443                       # Number of indirect target hits.
system.cpu0.branchPred.indirectLookups       18524198                       # Number of indirect predictor lookups.
system.cpu0.branchPred.indirectMisses          354755                       # Number of indirect misses.
system.cpu0.branchPred.lookups              289959153                       # Number of BP lookups
system.cpu0.branchPred.usedRAS                      0                       # Number of times the RAS was used to get a target.
system.cpu0.branchPredindirectMispredicted      1864328                       # Number of mispredicted indirect branches.
system.cpu0.commit.amos                       1811441                       # Number of atomic instructions committed
system.cpu0.commit.branchMispredicts          9208745                       # The number of times a branch was mispredicted
system.cpu0.commit.branches                 260643778                       # Number of branches committed
system.cpu0.commit.bw_lim_events             25559367                       # number cycles where commit BW limit reached
system.cpu0.commit.commitNonSpecStalls        5441313                       # The number of times commit has been forced to stall to communicate backwards
system.cpu0.commit.commitSquashedInsts       88862925                       # The number of squashed insts skipped by commit
system.cpu0.commit.committedInsts          1050563559                       # Number of instructions committed
system.cpu0.commit.committedOps            1052377535                       # Number of ops (including micro ops) committed
system.cpu0.commit.committed_per_cycle::samples   1897779528                       # Number of insts commited each cycle
system.cpu0.commit.committed_per_cycle::mean     0.554531                       # Number of insts commited each cycle
system.cpu0.commit.committed_per_cycle::stdev     1.277961                       # Number of insts commited each cycle
system.cpu0.commit.committed_per_cycle::underflows            0      0.00%      0.00% # Number of insts commited each cycle
system.cpu0.commit.committed_per_cycle::0   1372723464     72.33%     72.33% # Number of insts commited each cycle
system.cpu0.commit.committed_per_cycle::1    310380862     16.35%     88.69% # Number of insts commited each cycle
system.cpu0.commit.committed_per_cycle::2     83005699      4.37%     93.06% # Number of insts commited each cycle
system.cpu0.commit.committed_per_cycle::3     76370358      4.02%     97.09% # Number of insts commited each cycle
system.cpu0.commit.committed_per_cycle::4     17531961      0.92%     98.01% # Number of insts commited each cycle
system.cpu0.commit.committed_per_cycle::5      5075507      0.27%     98.28% # Number of insts commited each cycle
system.cpu0.commit.committed_per_cycle::6      3032284      0.16%     98.44% # Number of insts commited each cycle
system.cpu0.commit.committed_per_cycle::7      4100026      0.22%     98.65% # Number of insts commited each cycle
system.cpu0.commit.committed_per_cycle::8     25559367      1.35%    100.00% # Number of insts commited each cycle
system.cpu0.commit.committed_per_cycle::overflows            0      0.00%    100.00% # Number of insts commited each cycle
system.cpu0.commit.committed_per_cycle::min_value            0                       # Number of insts commited each cycle
system.cpu0.commit.committed_per_cycle::max_value            8                       # Number of insts commited each cycle
system.cpu0.commit.committed_per_cycle::total   1897779528                       # Number of insts commited each cycle
system.cpu0.commit.fp_insts                        50                       # Number of committed floating point instructions.
system.cpu0.commit.function_calls            20854969                       # Number of function calls committed.
system.cpu0.commit.int_insts               1015762431                       # Number of committed integer instructions.
system.cpu0.commit.loads                    326191284                       # Number of loads committed
system.cpu0.commit.membars                    3625328                       # Number of memory barriers committed
system.cpu0.commit.op_class_0::No_OpClass      3625334      0.34%      0.34% # Class of committed instruction
system.cpu0.commit.op_class_0::IntAlu       583789146     55.47%     55.82% # Class of committed instruction
system.cpu0.commit.op_class_0::IntMult        8030359      0.76%     56.58% # Class of committed instruction
system.cpu0.commit.op_class_0::IntDiv         1811037      0.17%     56.75% # Class of committed instruction
system.cpu0.commit.op_class_0::FloatAdd             0      0.00%     56.75% # Class of committed instruction
system.cpu0.commit.op_class_0::FloatCmp             4      0.00%     56.75% # Class of committed instruction
system.cpu0.commit.op_class_0::FloatCvt            12      0.00%     56.75% # Class of committed instruction
system.cpu0.commit.op_class_0::FloatMult            0      0.00%     56.75% # Class of committed instruction
system.cpu0.commit.op_class_0::FloatMultAcc            0      0.00%     56.75% # Class of committed instruction
system.cpu0.commit.op_class_0::FloatDiv             2      0.00%     56.75% # Class of committed instruction
system.cpu0.commit.op_class_0::FloatMisc            4      0.00%     56.75% # Class of committed instruction
system.cpu0.commit.op_class_0::FloatSqrt            0      0.00%     56.75% # Class of committed instruction
system.cpu0.commit.op_class_0::SimdAdd              0      0.00%     56.75% # Class of committed instruction
system.cpu0.commit.op_class_0::SimdAddAcc            0      0.00%     56.75% # Class of committed instruction
system.cpu0.commit.op_class_0::SimdAlu              0      0.00%     56.75% # Class of committed instruction
system.cpu0.commit.op_class_0::SimdCmp              0      0.00%     56.75% # Class of committed instruction
system.cpu0.commit.op_class_0::SimdCvt              0      0.00%     56.75% # Class of committed instruction
system.cpu0.commit.op_class_0::SimdMisc             0      0.00%     56.75% # Class of committed instruction
system.cpu0.commit.op_class_0::SimdMult             0      0.00%     56.75% # Class of committed instruction
system.cpu0.commit.op_class_0::SimdMultAcc            0      0.00%     56.75% # Class of committed instruction
system.cpu0.commit.op_class_0::SimdShift            0      0.00%     56.75% # Class of committed instruction
system.cpu0.commit.op_class_0::SimdShiftAcc            0      0.00%     56.75% # Class of committed instruction
system.cpu0.commit.op_class_0::SimdDiv              0      0.00%     56.75% # Class of committed instruction
system.cpu0.commit.op_class_0::SimdSqrt             0      0.00%     56.75% # Class of committed instruction
system.cpu0.commit.op_class_0::SimdFloatAdd            0      0.00%     56.75% # Class of committed instruction
system.cpu0.commit.op_class_0::SimdFloatAlu            0      0.00%     56.75% # Class of committed instruction
system.cpu0.commit.op_class_0::SimdFloatCmp            0      0.00%     56.75% # Class of committed instruction
system.cpu0.commit.op_class_0::SimdFloatCvt            0      0.00%     56.75% # Class of committed instruction
system.cpu0.commit.op_class_0::SimdFloatDiv            0      0.00%     56.75% # Class of committed instruction
system.cpu0.commit.op_class_0::SimdFloatMisc            0      0.00%     56.75% # Class of committed instruction
system.cpu0.commit.op_class_0::SimdFloatMult            0      0.00%     56.75% # Class of committed instruction
system.cpu0.commit.op_class_0::SimdFloatMultAcc            0      0.00%     56.75% # Class of committed instruction
system.cpu0.commit.op_class_0::SimdFloatSqrt            0      0.00%     56.75% # Class of committed instruction
system.cpu0.commit.op_class_0::SimdReduceAdd            0      0.00%     56.75% # Class of committed instruction
system.cpu0.commit.op_class_0::SimdReduceAlu            0      0.00%     56.75% # Class of committed instruction
system.cpu0.commit.op_class_0::SimdReduceCmp            0      0.00%     56.75% # Class of committed instruction
system.cpu0.commit.op_class_0::SimdFloatReduceAdd            0      0.00%     56.75% # Class of committed instruction
system.cpu0.commit.op_class_0::SimdFloatReduceCmp            0      0.00%     56.75% # Class of committed instruction
system.cpu0.commit.op_class_0::SimdAes              0      0.00%     56.75% # Class of committed instruction
system.cpu0.commit.op_class_0::SimdAesMix            0      0.00%     56.75% # Class of committed instruction
system.cpu0.commit.op_class_0::SimdSha1Hash            0      0.00%     56.75% # Class of committed instruction
system.cpu0.commit.op_class_0::SimdSha1Hash2            0      0.00%     56.75% # Class of committed instruction
system.cpu0.commit.op_class_0::SimdSha256Hash            0      0.00%     56.75% # Class of committed instruction
system.cpu0.commit.op_class_0::SimdSha256Hash2            0      0.00%     56.75% # Class of committed instruction
system.cpu0.commit.op_class_0::SimdShaSigma2            0      0.00%     56.75% # Class of committed instruction
system.cpu0.commit.op_class_0::SimdShaSigma3            0      0.00%     56.75% # Class of committed instruction
system.cpu0.commit.op_class_0::SimdPredAlu            0      0.00%     56.75% # Class of committed instruction
system.cpu0.commit.op_class_0::MemRead      328002717     31.17%     87.92% # Class of committed instruction
system.cpu0.commit.op_class_0::MemWrite     127118892     12.08%    100.00% # Class of committed instruction
system.cpu0.commit.op_class_0::FloatMemRead            8      0.00%    100.00% # Class of committed instruction
system.cpu0.commit.op_class_0::FloatMemWrite           20      0.00%    100.00% # Class of committed instruction
system.cpu0.commit.op_class_0::IprAccess            0      0.00%    100.00% # Class of committed instruction
system.cpu0.commit.op_class_0::InstPrefetch            0      0.00%    100.00% # Class of committed instruction
system.cpu0.commit.op_class_0::total       1052377535                       # Class of committed instruction
system.cpu0.commit.refs                     455121637                       # Number of memory references committed
system.cpu0.commit.swp_count                        0                       # Number of s/w prefetches committed
system.cpu0.commit.vec_insts                        0                       # Number of committed Vector instructions.
system.cpu0.committedInsts                 1050563559                       # Number of Instructions Simulated
system.cpu0.committedOps                   1052377535                       # Number of Ops (including micro ops) Simulated
system.cpu0.cpi                              1.941348                       # CPI: Cycles Per Instruction
system.cpu0.cpi_total                        1.941348                       # CPI: Total CPI of All Threads
system.cpu0.decode.BlockedCycles            265997694                       # Number of cycles decode is blocked
system.cpu0.decode.BranchMispred              4786903                       # Number of times decode detected a branch misprediction
system.cpu0.decode.BranchResolved           140998724                       # Number of times decode resolved a branch
system.cpu0.decode.DecodedInsts            1170721561                       # Number of instructions handled by decode
system.cpu0.decode.IdleCycles               839133163                       # Number of cycles decode is idle
system.cpu0.decode.RunCycles                794726207                       # Number of cycles decode is running
system.cpu0.decode.SquashCycles               9221371                       # Number of cycles decode is squashing
system.cpu0.decode.SquashedInsts             14516879                       # Number of squashed instructions handled by decode
system.cpu0.decode.UnblockCycles              5097675                       # Number of cycles decode is unblocking
system.cpu0.dtb.accesses                            0                       # DTB accesses
system.cpu0.dtb.hits                                0                       # DTB hits
system.cpu0.dtb.misses                              0                       # DTB misses
system.cpu0.dtb.read_accesses                       0                       # DTB read accesses
system.cpu0.dtb.read_hits                           0                       # DTB read hits
system.cpu0.dtb.read_misses                         0                       # DTB read misses
system.cpu0.dtb.write_accesses                      0                       # DTB write accesses
system.cpu0.dtb.write_hits                          0                       # DTB write hits
system.cpu0.dtb.write_misses                        0                       # DTB write misses
system.cpu0.fetch.Branches                  289959153                       # Number of branches that fetch encountered
system.cpu0.fetch.CacheLines                208657944                       # Number of cache lines fetched
system.cpu0.fetch.Cycles                   1082890143                       # Number of cycles fetch has run and was not squashing or blocked
system.cpu0.fetch.IcacheSquashes              3795455                       # Number of outstanding Icache misses that were squashed
system.cpu0.fetch.IcacheWaitRetryStallCycles           81                       # Number of stall cycles due to full MSHR
system.cpu0.fetch.Insts                    1205336527                       # Number of instructions fetch has processed
system.cpu0.fetch.MiscStallCycles                  67                       # Number of cycles fetch has spent waiting on interrupts, or bad addresses, or out of MSHRs
system.cpu0.fetch.PendingTrapStallCycles          189                       # Number of stall cycles due to pending traps
system.cpu0.fetch.SquashCycles               27979092                       # Number of cycles fetch has spent squashing
system.cpu0.fetch.branchRate                 0.142171                       # Number of branch fetches per cycle
system.cpu0.fetch.icacheStallCycles         817296084                       # Number of cycles fetch is stalled on an Icache miss
system.cpu0.fetch.predictedBranches         161167501                       # Number of branches that fetch has predicted taken
system.cpu0.fetch.rate                       0.590993                       # Number of inst fetches per cycle
system.cpu0.fetch.rateDist::samples        1914176110                       # Number of instructions fetched each cycle (Total)
system.cpu0.fetch.rateDist::mean             0.633029                       # Number of instructions fetched each cycle (Total)
system.cpu0.fetch.rateDist::stdev            0.934525                       # Number of instructions fetched each cycle (Total)
system.cpu0.fetch.rateDist::underflows              0      0.00%      0.00% # Number of instructions fetched each cycle (Total)
system.cpu0.fetch.rateDist::0              1081644940     56.51%     56.51% # Number of instructions fetched each cycle (Total)
system.cpu0.fetch.rateDist::1               607461004     31.73%     88.24% # Number of instructions fetched each cycle (Total)
system.cpu0.fetch.rateDist::2               117642814      6.15%     94.39% # Number of instructions fetched each cycle (Total)
system.cpu0.fetch.rateDist::3                81378493      4.25%     98.64% # Number of instructions fetched each cycle (Total)
system.cpu0.fetch.rateDist::4                14202634      0.74%     99.38% # Number of instructions fetched each cycle (Total)
system.cpu0.fetch.rateDist::5                 6982133      0.36%     99.75% # Number of instructions fetched each cycle (Total)
system.cpu0.fetch.rateDist::6                 1027014      0.05%     99.80% # Number of instructions fetched each cycle (Total)
system.cpu0.fetch.rateDist::7                 3733431      0.20%     99.99% # Number of instructions fetched each cycle (Total)
system.cpu0.fetch.rateDist::8                  103647      0.01%    100.00% # Number of instructions fetched each cycle (Total)
system.cpu0.fetch.rateDist::overflows               0      0.00%    100.00% # Number of instructions fetched each cycle (Total)
system.cpu0.fetch.rateDist::min_value               0                       # Number of instructions fetched each cycle (Total)
system.cpu0.fetch.rateDist::max_value               8                       # Number of instructions fetched each cycle (Total)
system.cpu0.fetch.rateDist::total          1914176110                       # Number of instructions fetched each cycle (Total)
system.cpu0.fp_regfile_reads                       44                       # number of floating regfile reads
system.cpu0.fp_regfile_writes                      22                       # number of floating regfile writes
system.cpu0.idleCycles                      125333811                       # Total number of cycles that the CPU has spent unscheduled due to idling
system.cpu0.iew.branchMispredicts             9298255                       # Number of branch mispredicts detected at execute
system.cpu0.iew.exec_branches               270043721                       # Number of branches executed
system.cpu0.iew.exec_nop                            0                       # number of nop insts executed
system.cpu0.iew.exec_rate                    0.536795                       # Inst execution rate
system.cpu0.iew.exec_refs                   476185017                       # number of memory reference insts executed
system.cpu0.iew.exec_stores                 132754652                       # Number of stores executed
system.cpu0.iew.exec_swp                            0                       # number of swp insts executed
system.cpu0.iew.iewBlockCycles              231443558                       # Number of cycles IEW is blocking
system.cpu0.iew.iewDispLoadInsts            358466990                       # Number of dispatched load instructions
system.cpu0.iew.iewDispNonSpecInsts           4137364                       # Number of dispatched non-speculative instructions
system.cpu0.iew.iewDispSquashedInsts          5076108                       # Number of squashed instructions skipped by dispatch
system.cpu0.iew.iewDispStoreInsts           138227413                       # Number of dispatched store instructions
system.cpu0.iew.iewDispatchedInsts         1141216758                       # Number of instructions dispatched to IQ
system.cpu0.iew.iewExecLoadInsts            343430365                       # Number of load instructions executed
system.cpu0.iew.iewExecSquashedInsts          7450313                       # Number of squashed instructions skipped in execute
system.cpu0.iew.iewExecutedInsts           1094798554                       # Number of executed instructions
system.cpu0.iew.iewIQFullEvents               1588629                       # Number of times the IQ has become full, causing a stall
system.cpu0.iew.iewIdleCycles                       0                       # Number of cycles IEW is idle
system.cpu0.iew.iewLSQFullEvents              3439293                       # Number of times the LSQ has become full, causing a stall
system.cpu0.iew.iewSquashCycles               9221371                       # Number of cycles IEW is squashing
system.cpu0.iew.iewUnblockCycles              6825911                       # Number of cycles IEW is unblocking
system.cpu0.iew.lsq.thread0.blockedLoads            0                       # Number of blocked loads due to partial load-store forwarding
system.cpu0.iew.lsq.thread0.cacheBlocked        78183                       # Number of times an access to memory failed due to the cache being blocked
system.cpu0.iew.lsq.thread0.forwLoads        14929964                       # Number of loads that had data forwarded from stores
system.cpu0.iew.lsq.thread0.ignoredResponses        37525                       # Number of memory responses ignored because the instruction is squashed
system.cpu0.iew.lsq.thread0.invAddrLoads            0                       # Number of loads ignored due to an invalid address
system.cpu0.iew.lsq.thread0.invAddrSwpfs            0                       # Number of software prefetches ignored due to an invalid address
system.cpu0.iew.lsq.thread0.memOrderViolation        12746                       # Number of memory ordering violations
system.cpu0.iew.lsq.thread0.rescheduledLoads      4188030                       # Number of loads that were rescheduled
system.cpu0.iew.lsq.thread0.squashedLoads     32275706                       # Number of loads squashed
system.cpu0.iew.lsq.thread0.squashedStores      9297060                       # Number of stores squashed
system.cpu0.iew.memOrderViolationEvents         12746                       # Number of memory order violations
system.cpu0.iew.predictedNotTakenIncorrect      1642870                       # Number of branches that were predicted not taken incorrectly
system.cpu0.iew.predictedTakenIncorrect       7655385                       # Number of branches that were predicted taken incorrectly
system.cpu0.iew.wb_consumers                457131298                       # num instructions consuming a value
system.cpu0.iew.wb_count                   1086763762                       # cumulative count of insts written-back
system.cpu0.iew.wb_fanout                    0.883933                       # average fanout of values written-back
system.cpu0.iew.wb_producers                404073660                       # num instructions producing a value
system.cpu0.iew.wb_rate                      0.532855                       # insts written-back per cycle
system.cpu0.iew.wb_sent                    1086829120                       # cumulative count of insts sent to commit
system.cpu0.int_regfile_reads              1341200194                       # number of integer regfile reads
system.cpu0.int_regfile_writes              691837998                       # number of integer regfile writes
system.cpu0.ipc                              0.515106                       # IPC: Instructions Per Cycle
system.cpu0.ipc_total                        0.515106                       # IPC: Total IPC of All Threads
system.cpu0.iq.FU_type_0::No_OpClass          3626828      0.33%      0.33% # Type of FU issued
system.cpu0.iq.FU_type_0::IntAlu            608954491     55.25%     55.58% # Type of FU issued
system.cpu0.iq.FU_type_0::IntMult             8035429      0.73%     56.30% # Type of FU issued
system.cpu0.iq.FU_type_0::IntDiv              1811521      0.16%     56.47% # Type of FU issued
system.cpu0.iq.FU_type_0::FloatAdd                  0      0.00%     56.47% # Type of FU issued
system.cpu0.iq.FU_type_0::FloatCmp                  4      0.00%     56.47% # Type of FU issued
system.cpu0.iq.FU_type_0::FloatCvt                 12      0.00%     56.47% # Type of FU issued
system.cpu0.iq.FU_type_0::FloatMult                 0      0.00%     56.47% # Type of FU issued
system.cpu0.iq.FU_type_0::FloatMultAcc              0      0.00%     56.47% # Type of FU issued
system.cpu0.iq.FU_type_0::FloatDiv                  2      0.00%     56.47% # Type of FU issued
system.cpu0.iq.FU_type_0::FloatMisc                 4      0.00%     56.47% # Type of FU issued
system.cpu0.iq.FU_type_0::FloatSqrt                 0      0.00%     56.47% # Type of FU issued
system.cpu0.iq.FU_type_0::SimdAdd                   0      0.00%     56.47% # Type of FU issued
system.cpu0.iq.FU_type_0::SimdAddAcc                0      0.00%     56.47% # Type of FU issued
system.cpu0.iq.FU_type_0::SimdAlu                   0      0.00%     56.47% # Type of FU issued
system.cpu0.iq.FU_type_0::SimdCmp                   0      0.00%     56.47% # Type of FU issued
system.cpu0.iq.FU_type_0::SimdCvt                   0      0.00%     56.47% # Type of FU issued
system.cpu0.iq.FU_type_0::SimdMisc                  0      0.00%     56.47% # Type of FU issued
system.cpu0.iq.FU_type_0::SimdMult                  0      0.00%     56.47% # Type of FU issued
system.cpu0.iq.FU_type_0::SimdMultAcc               0      0.00%     56.47% # Type of FU issued
system.cpu0.iq.FU_type_0::SimdShift                 0      0.00%     56.47% # Type of FU issued
system.cpu0.iq.FU_type_0::SimdShiftAcc              0      0.00%     56.47% # Type of FU issued
system.cpu0.iq.FU_type_0::SimdDiv                   0      0.00%     56.47% # Type of FU issued
system.cpu0.iq.FU_type_0::SimdSqrt                  0      0.00%     56.47% # Type of FU issued
system.cpu0.iq.FU_type_0::SimdFloatAdd              0      0.00%     56.47% # Type of FU issued
system.cpu0.iq.FU_type_0::SimdFloatAlu              0      0.00%     56.47% # Type of FU issued
system.cpu0.iq.FU_type_0::SimdFloatCmp              0      0.00%     56.47% # Type of FU issued
system.cpu0.iq.FU_type_0::SimdFloatCvt              0      0.00%     56.47% # Type of FU issued
system.cpu0.iq.FU_type_0::SimdFloatDiv              0      0.00%     56.47% # Type of FU issued
system.cpu0.iq.FU_type_0::SimdFloatMisc             0      0.00%     56.47% # Type of FU issued
system.cpu0.iq.FU_type_0::SimdFloatMult             0      0.00%     56.47% # Type of FU issued
system.cpu0.iq.FU_type_0::SimdFloatMultAcc            0      0.00%     56.47% # Type of FU issued
system.cpu0.iq.FU_type_0::SimdFloatSqrt             0      0.00%     56.47% # Type of FU issued
system.cpu0.iq.FU_type_0::SimdReduceAdd             0      0.00%     56.47% # Type of FU issued
system.cpu0.iq.FU_type_0::SimdReduceAlu             0      0.00%     56.47% # Type of FU issued
system.cpu0.iq.FU_type_0::SimdReduceCmp             0      0.00%     56.47% # Type of FU issued
system.cpu0.iq.FU_type_0::SimdFloatReduceAdd            0      0.00%     56.47% # Type of FU issued
system.cpu0.iq.FU_type_0::SimdFloatReduceCmp            0      0.00%     56.47% # Type of FU issued
system.cpu0.iq.FU_type_0::SimdAes                   0      0.00%     56.47% # Type of FU issued
system.cpu0.iq.FU_type_0::SimdAesMix                0      0.00%     56.47% # Type of FU issued
system.cpu0.iq.FU_type_0::SimdSha1Hash              0      0.00%     56.47% # Type of FU issued
system.cpu0.iq.FU_type_0::SimdSha1Hash2             0      0.00%     56.47% # Type of FU issued
system.cpu0.iq.FU_type_0::SimdSha256Hash            0      0.00%     56.47% # Type of FU issued
system.cpu0.iq.FU_type_0::SimdSha256Hash2            0      0.00%     56.47% # Type of FU issued
system.cpu0.iq.FU_type_0::SimdShaSigma2             0      0.00%     56.47% # Type of FU issued
system.cpu0.iq.FU_type_0::SimdShaSigma3             0      0.00%     56.47% # Type of FU issued
system.cpu0.iq.FU_type_0::SimdPredAlu               0      0.00%     56.47% # Type of FU issued
system.cpu0.iq.FU_type_0::MemRead           348613236     31.63%     88.10% # Type of FU issued
system.cpu0.iq.FU_type_0::MemWrite          131207313     11.90%    100.00% # Type of FU issued
system.cpu0.iq.FU_type_0::FloatMemRead              8      0.00%    100.00% # Type of FU issued
system.cpu0.iq.FU_type_0::FloatMemWrite            20      0.00%    100.00% # Type of FU issued
system.cpu0.iq.FU_type_0::IprAccess                 0      0.00%    100.00% # Type of FU issued
system.cpu0.iq.FU_type_0::InstPrefetch              0      0.00%    100.00% # Type of FU issued
system.cpu0.iq.FU_type_0::total            1102248868                       # Type of FU issued
system.cpu0.iq.fp_alu_accesses                     52                       # Number of floating point alu accesses
system.cpu0.iq.fp_inst_queue_reads                102                       # Number of floating instruction queue reads
system.cpu0.iq.fp_inst_queue_wakeup_accesses           50                       # Number of floating instruction queue wakeup accesses
system.cpu0.iq.fp_inst_queue_writes                50                       # Number of floating instruction queue writes
system.cpu0.iq.fu_busy_cnt                    2199642                       # FU busy when requested
system.cpu0.iq.fu_busy_rate                  0.001996                       # FU busy rate (busy events/executed inst)
system.cpu0.iq.fu_full::No_OpClass                  0      0.00%      0.00% # attempts to use FU when none available
system.cpu0.iq.fu_full::IntAlu                 356774     16.22%     16.22% # attempts to use FU when none available
system.cpu0.iq.fu_full::IntMult                     0      0.00%     16.22% # attempts to use FU when none available
system.cpu0.iq.fu_full::IntDiv                      0      0.00%     16.22% # attempts to use FU when none available
system.cpu0.iq.fu_full::FloatAdd                    0      0.00%     16.22% # attempts to use FU when none available
system.cpu0.iq.fu_full::FloatCmp                    0      0.00%     16.22% # attempts to use FU when none available
system.cpu0.iq.fu_full::FloatCvt                    0      0.00%     16.22% # attempts to use FU when none available
system.cpu0.iq.fu_full::FloatMult                   0      0.00%     16.22% # attempts to use FU when none available
system.cpu0.iq.fu_full::FloatMultAcc                0      0.00%     16.22% # attempts to use FU when none available
system.cpu0.iq.fu_full::FloatDiv                    0      0.00%     16.22% # attempts to use FU when none available
system.cpu0.iq.fu_full::FloatMisc                   0      0.00%     16.22% # attempts to use FU when none available
system.cpu0.iq.fu_full::FloatSqrt                   0      0.00%     16.22% # attempts to use FU when none available
system.cpu0.iq.fu_full::SimdAdd                     0      0.00%     16.22% # attempts to use FU when none available
system.cpu0.iq.fu_full::SimdAddAcc                  0      0.00%     16.22% # attempts to use FU when none available
system.cpu0.iq.fu_full::SimdAlu                     0      0.00%     16.22% # attempts to use FU when none available
system.cpu0.iq.fu_full::SimdCmp                     0      0.00%     16.22% # attempts to use FU when none available
system.cpu0.iq.fu_full::SimdCvt                     0      0.00%     16.22% # attempts to use FU when none available
system.cpu0.iq.fu_full::SimdMisc                    0      0.00%     16.22% # attempts to use FU when none available
system.cpu0.iq.fu_full::SimdMult                    0      0.00%     16.22% # attempts to use FU when none available
system.cpu0.iq.fu_full::SimdMultAcc                 0      0.00%     16.22% # attempts to use FU when none available
system.cpu0.iq.fu_full::SimdShift                   0      0.00%     16.22% # attempts to use FU when none available
system.cpu0.iq.fu_full::SimdShiftAcc                0      0.00%     16.22% # attempts to use FU when none available
system.cpu0.iq.fu_full::SimdDiv                     0      0.00%     16.22% # attempts to use FU when none available
system.cpu0.iq.fu_full::SimdSqrt                    0      0.00%     16.22% # attempts to use FU when none available
system.cpu0.iq.fu_full::SimdFloatAdd                0      0.00%     16.22% # attempts to use FU when none available
system.cpu0.iq.fu_full::SimdFloatAlu                0      0.00%     16.22% # attempts to use FU when none available
system.cpu0.iq.fu_full::SimdFloatCmp                0      0.00%     16.22% # attempts to use FU when none available
system.cpu0.iq.fu_full::SimdFloatCvt                0      0.00%     16.22% # attempts to use FU when none available
system.cpu0.iq.fu_full::SimdFloatDiv                0      0.00%     16.22% # attempts to use FU when none available
system.cpu0.iq.fu_full::SimdFloatMisc               0      0.00%     16.22% # attempts to use FU when none available
system.cpu0.iq.fu_full::SimdFloatMult               0      0.00%     16.22% # attempts to use FU when none available
system.cpu0.iq.fu_full::SimdFloatMultAcc            0      0.00%     16.22% # attempts to use FU when none available
system.cpu0.iq.fu_full::SimdFloatSqrt               0      0.00%     16.22% # attempts to use FU when none available
system.cpu0.iq.fu_full::SimdReduceAdd               0      0.00%     16.22% # attempts to use FU when none available
system.cpu0.iq.fu_full::SimdReduceAlu               0      0.00%     16.22% # attempts to use FU when none available
system.cpu0.iq.fu_full::SimdReduceCmp               0      0.00%     16.22% # attempts to use FU when none available
system.cpu0.iq.fu_full::SimdFloatReduceAdd            0      0.00%     16.22% # attempts to use FU when none available
system.cpu0.iq.fu_full::SimdFloatReduceCmp            0      0.00%     16.22% # attempts to use FU when none available
system.cpu0.iq.fu_full::SimdAes                     0      0.00%     16.22% # attempts to use FU when none available
system.cpu0.iq.fu_full::SimdAesMix                  0      0.00%     16.22% # attempts to use FU when none available
system.cpu0.iq.fu_full::SimdSha1Hash                0      0.00%     16.22% # attempts to use FU when none available
system.cpu0.iq.fu_full::SimdSha1Hash2               0      0.00%     16.22% # attempts to use FU when none available
system.cpu0.iq.fu_full::SimdSha256Hash              0      0.00%     16.22% # attempts to use FU when none available
system.cpu0.iq.fu_full::SimdSha256Hash2             0      0.00%     16.22% # attempts to use FU when none available
system.cpu0.iq.fu_full::SimdShaSigma2               0      0.00%     16.22% # attempts to use FU when none available
system.cpu0.iq.fu_full::SimdShaSigma3               0      0.00%     16.22% # attempts to use FU when none available
system.cpu0.iq.fu_full::SimdPredAlu                 0      0.00%     16.22% # attempts to use FU when none available
system.cpu0.iq.fu_full::MemRead               1669801     75.91%     92.13% # attempts to use FU when none available
system.cpu0.iq.fu_full::MemWrite               173065      7.87%    100.00% # attempts to use FU when none available
system.cpu0.iq.fu_full::FloatMemRead                0      0.00%    100.00% # attempts to use FU when none available
system.cpu0.iq.fu_full::FloatMemWrite               2      0.00%    100.00% # attempts to use FU when none available
system.cpu0.iq.fu_full::IprAccess                   0      0.00%    100.00% # attempts to use FU when none available
system.cpu0.iq.fu_full::InstPrefetch                0      0.00%    100.00% # attempts to use FU when none available
system.cpu0.iq.int_alu_accesses            1100821630                       # Number of integer alu accesses
system.cpu0.iq.int_inst_queue_reads        4120974447                       # Number of integer instruction queue reads
system.cpu0.iq.int_inst_queue_wakeup_accesses   1086763712                       # Number of integer instruction queue wakeup accesses
system.cpu0.iq.int_inst_queue_writes       1230067875                       # Number of integer instruction queue writes
system.cpu0.iq.iqInstsAdded                1128804939                       # Number of instructions added to the IQ (excludes non-spec)
system.cpu0.iq.iqInstsIssued               1102248868                       # Number of instructions issued
system.cpu0.iq.iqNonSpecInstsAdded           12411819                       # Number of non-speculative instructions added to the IQ
system.cpu0.iq.iqSquashedInstsExamined       88839219                       # Number of squashed instructions iterated over during squash; mainly for profiling
system.cpu0.iq.iqSquashedInstsIssued           101062                       # Number of squashed instructions issued
system.cpu0.iq.iqSquashedNonSpecRemoved       6970506                       # Number of squashed non-spec instructions that were removed
system.cpu0.iq.iqSquashedOperandsExamined     54994615                       # Number of squashed operands that are examined and possibly removed from graph
system.cpu0.iq.issued_per_cycle::samples   1914176110                       # Number of insts issued each cycle
system.cpu0.iq.issued_per_cycle::mean        0.575835                       # Number of insts issued each cycle
system.cpu0.iq.issued_per_cycle::stdev       0.798721                       # Number of insts issued each cycle
system.cpu0.iq.issued_per_cycle::underflows            0      0.00%      0.00% # Number of insts issued each cycle
system.cpu0.iq.issued_per_cycle::0         1105426205     57.75%     57.75% # Number of insts issued each cycle
system.cpu0.iq.issued_per_cycle::1          578284040     30.21%     87.96% # Number of insts issued each cycle
system.cpu0.iq.issued_per_cycle::2          181800916      9.50%     97.46% # Number of insts issued each cycle
system.cpu0.iq.issued_per_cycle::3           37954245      1.98%     99.44% # Number of insts issued each cycle
system.cpu0.iq.issued_per_cycle::4            8657888      0.45%     99.89% # Number of insts issued each cycle
system.cpu0.iq.issued_per_cycle::5             990275      0.05%     99.94% # Number of insts issued each cycle
system.cpu0.iq.issued_per_cycle::6             626991      0.03%     99.98% # Number of insts issued each cycle
system.cpu0.iq.issued_per_cycle::7             329012      0.02%     99.99% # Number of insts issued each cycle
system.cpu0.iq.issued_per_cycle::8             106538      0.01%    100.00% # Number of insts issued each cycle
system.cpu0.iq.issued_per_cycle::overflows            0      0.00%    100.00% # Number of insts issued each cycle
system.cpu0.iq.issued_per_cycle::min_value            0                       # Number of insts issued each cycle
system.cpu0.iq.issued_per_cycle::max_value            8                       # Number of insts issued each cycle
system.cpu0.iq.issued_per_cycle::total     1914176110                       # Number of insts issued each cycle
system.cpu0.iq.rate                          0.540448                       # Inst issue rate
system.cpu0.iq.vec_alu_accesses                     0                       # Number of vector alu accesses
system.cpu0.iq.vec_inst_queue_reads                 0                       # Number of vector instruction queue reads
system.cpu0.iq.vec_inst_queue_wakeup_accesses            0                       # Number of vector instruction queue wakeup accesses
system.cpu0.iq.vec_inst_queue_writes                0                       # Number of vector instruction queue writes
system.cpu0.itb.accesses                            0                       # DTB accesses
system.cpu0.itb.hits                                0                       # DTB hits
system.cpu0.itb.misses                              0                       # DTB misses
system.cpu0.itb.read_accesses                       0                       # DTB read accesses
system.cpu0.itb.read_hits                           0                       # DTB read hits
system.cpu0.itb.read_misses                         0                       # DTB read misses
system.cpu0.itb.write_accesses                      0                       # DTB write accesses
system.cpu0.itb.write_hits                          0                       # DTB write hits
system.cpu0.itb.write_misses                        0                       # DTB write misses
system.cpu0.memDep0.conflictingLoads         31339617                       # Number of conflicting loads.
system.cpu0.memDep0.conflictingStores         4942915                       # Number of conflicting stores.
system.cpu0.memDep0.insertedLoads           358466990                       # Number of loads inserted to the mem dependence unit.
system.cpu0.memDep0.insertedStores          138227413                       # Number of stores inserted to the mem dependence unit.
system.cpu0.misc_regfile_reads                   1495                       # number of misc regfile reads
system.cpu0.misc_regfile_writes                    22                       # number of misc regfile writes
system.cpu0.numCycles                      2039509921                       # number of cpu cycles simulated
system.cpu0.numWorkItemsCompleted                   0                       # number of work items this cpu completed
system.cpu0.numWorkItemsStarted                     0                       # number of work items this cpu started
system.cpu0.quiesceCycles                     2125143                       # Total number of cycles that CPU has spent quiesced or waiting for an interrupt
system.cpu0.rename.BlockCycles              246979352                       # Number of cycles rename is blocking
system.cpu0.rename.CommittedMaps            670503309                       # Number of HB maps that are committed
system.cpu0.rename.IQFullEvents               8157130                       # Number of times rename has blocked due to IQ full
system.cpu0.rename.IdleCycles               850897602                       # Number of cycles rename is idle
system.cpu0.rename.LQFullEvents               5768100                       # Number of times rename has blocked due to LQ full
system.cpu0.rename.ROBFullEvents                25747                       # Number of times rename has blocked due to ROB full
system.cpu0.rename.RenameLookups           1411916596                       # Number of register rename lookups that rename has made
system.cpu0.rename.RenamedInsts            1155112393                       # Number of instructions processed by rename
system.cpu0.rename.RenamedOperands          740864110                       # Number of destination operands rename has renamed
system.cpu0.rename.RunCycles                786023349                       # Number of cycles rename is running
system.cpu0.rename.SQFullEvents               5254636                       # Number of times rename has blocked due to SQ full
system.cpu0.rename.SquashCycles               9221371                       # Number of cycles rename is squashing
system.cpu0.rename.UnblockCycles             20928269                       # Number of cycles rename is unblocking
system.cpu0.rename.UndoneMaps                70360796                       # Number of HB maps that are undone due to squashing
system.cpu0.rename.fp_rename_lookups               44                       # Number of floating rename lookups
system.cpu0.rename.int_rename_lookups      1411916552                       # Number of integer rename lookups
system.cpu0.rename.serializeStallCycles        126167                       # count of cycles rename stalled for serializing inst
system.cpu0.rename.serializingInsts              4688                       # count of serializing insts renamed
system.cpu0.rename.skidInsts                 19828667                       # count of insts added to the skid buffer
system.cpu0.rename.tempSerializingInsts          4646                       # count of temporary serializing insts renamed
system.cpu0.rob.rob_reads                  3013441654                       # The number of ROB reads
system.cpu0.rob.rob_writes                 2298893008                       # The number of ROB writes
system.cpu0.timesIdled                       26854369                       # Number of times that the entire CPU went into an idle state and unscheduled itself
system.cpu0.workload.numSyscalls                 1462                       # Number of system calls
system.cpu1.branchPred.BTBCorrect                   0                       # Number of correct BTB predictions (this stat may not work properly.
system.cpu1.branchPred.BTBHitPct            94.402353                       # BTB Hit Percentage
system.cpu1.branchPred.BTBHits                8863924                       # Number of BTB hits
system.cpu1.branchPred.BTBLookups             9389516                       # Number of BTB lookups
system.cpu1.branchPred.RASInCorrect                 0                       # Number of incorrect RAS predictions.
system.cpu1.branchPred.condIncorrect          1624824                       # Number of conditional branches incorrect
system.cpu1.branchPred.condPredicted         17130387                       # Number of conditional branches predicted
system.cpu1.branchPred.indirectHits            310211                       # Number of indirect target hits.
system.cpu1.branchPred.indirectLookups         481022                       # Number of indirect predictor lookups.
system.cpu1.branchPred.indirectMisses          170811                       # Number of indirect misses.
system.cpu1.branchPred.lookups               18727030                       # Number of BP lookups
system.cpu1.branchPred.usedRAS                      0                       # Number of times the RAS was used to get a target.
system.cpu1.branchPredindirectMispredicted         4574                       # Number of mispredicted indirect branches.
system.cpu1.commit.amos                       1811199                       # Number of atomic instructions committed
system.cpu1.commit.branchMispredicts           933998                       # The number of times a branch was mispredicted
system.cpu1.commit.branches                  12193948                       # Number of branches committed
system.cpu1.commit.bw_lim_events              1148640                       # number cycles where commit BW limit reached
system.cpu1.commit.commitNonSpecStalls        5434263                       # The number of times commit has been forced to stall to communicate backwards
system.cpu1.commit.commitSquashedInsts       18629795                       # The number of squashed insts skipped by commit
system.cpu1.commit.committedInsts            55033617                       # Number of instructions committed
system.cpu1.commit.committedOps              56844994                       # Number of ops (including micro ops) committed
system.cpu1.commit.committed_per_cycle::samples    309234912                       # Number of insts commited each cycle
system.cpu1.commit.committed_per_cycle::mean     0.183825                       # Number of insts commited each cycle
system.cpu1.commit.committed_per_cycle::stdev     0.830113                       # Number of insts commited each cycle
system.cpu1.commit.committed_per_cycle::underflows            0      0.00%      0.00% # Number of insts commited each cycle
system.cpu1.commit.committed_per_cycle::0    284979619     92.16%     92.16% # Number of insts commited each cycle
system.cpu1.commit.committed_per_cycle::1     12267639      3.97%     96.12% # Number of insts commited each cycle
system.cpu1.commit.committed_per_cycle::2      4104432      1.33%     97.45% # Number of insts commited each cycle
system.cpu1.commit.committed_per_cycle::3      3732003      1.21%     98.66% # Number of insts commited each cycle
system.cpu1.commit.committed_per_cycle::4       905395      0.29%     98.95% # Number of insts commited each cycle
system.cpu1.commit.committed_per_cycle::5       322619      0.10%     99.05% # Number of insts commited each cycle
system.cpu1.commit.committed_per_cycle::6      1673268      0.54%     99.60% # Number of insts commited each cycle
system.cpu1.commit.committed_per_cycle::7       101297      0.03%     99.63% # Number of insts commited each cycle
system.cpu1.commit.committed_per_cycle::8      1148640      0.37%    100.00% # Number of insts commited each cycle
system.cpu1.commit.committed_per_cycle::overflows            0      0.00%    100.00% # Number of insts commited each cycle
system.cpu1.commit.committed_per_cycle::min_value            0                       # Number of insts commited each cycle
system.cpu1.commit.committed_per_cycle::max_value            8                       # Number of insts commited each cycle
system.cpu1.commit.committed_per_cycle::total    309234912                       # Number of insts commited each cycle
system.cpu1.commit.fp_insts                        12                       # Number of committed floating point instructions.
system.cpu1.commit.function_calls              501130                       # Number of function calls committed.
system.cpu1.commit.int_insts                 52931695                       # Number of committed integer instructions.
system.cpu1.commit.loads                     16119062                       # Number of loads committed
system.cpu1.commit.membars                    3622528                       # Number of memory barriers committed
system.cpu1.commit.op_class_0::No_OpClass      3622528      6.37%      6.37% # Class of committed instruction
system.cpu1.commit.op_class_0::IntAlu        31982232     56.26%     62.63% # Class of committed instruction
system.cpu1.commit.op_class_0::IntMult             43      0.00%     62.63% # Class of committed instruction
system.cpu1.commit.op_class_0::IntDiv              86      0.00%     62.64% # Class of committed instruction
system.cpu1.commit.op_class_0::FloatAdd             0      0.00%     62.64% # Class of committed instruction
system.cpu1.commit.op_class_0::FloatCmp             0      0.00%     62.64% # Class of committed instruction
system.cpu1.commit.op_class_0::FloatCvt             0      0.00%     62.64% # Class of committed instruction
system.cpu1.commit.op_class_0::FloatMult            0      0.00%     62.64% # Class of committed instruction
system.cpu1.commit.op_class_0::FloatMultAcc            0      0.00%     62.64% # Class of committed instruction
system.cpu1.commit.op_class_0::FloatDiv             0      0.00%     62.64% # Class of committed instruction
system.cpu1.commit.op_class_0::FloatMisc            0      0.00%     62.64% # Class of committed instruction
system.cpu1.commit.op_class_0::FloatSqrt            0      0.00%     62.64% # Class of committed instruction
system.cpu1.commit.op_class_0::SimdAdd              0      0.00%     62.64% # Class of committed instruction
system.cpu1.commit.op_class_0::SimdAddAcc            0      0.00%     62.64% # Class of committed instruction
system.cpu1.commit.op_class_0::SimdAlu              0      0.00%     62.64% # Class of committed instruction
system.cpu1.commit.op_class_0::SimdCmp              0      0.00%     62.64% # Class of committed instruction
system.cpu1.commit.op_class_0::SimdCvt              0      0.00%     62.64% # Class of committed instruction
system.cpu1.commit.op_class_0::SimdMisc             0      0.00%     62.64% # Class of committed instruction
system.cpu1.commit.op_class_0::SimdMult             0      0.00%     62.64% # Class of committed instruction
system.cpu1.commit.op_class_0::SimdMultAcc            0      0.00%     62.64% # Class of committed instruction
system.cpu1.commit.op_class_0::SimdShift            0      0.00%     62.64% # Class of committed instruction
system.cpu1.commit.op_class_0::SimdShiftAcc            0      0.00%     62.64% # Class of committed instruction
system.cpu1.commit.op_class_0::SimdDiv              0      0.00%     62.64% # Class of committed instruction
system.cpu1.commit.op_class_0::SimdSqrt             0      0.00%     62.64% # Class of committed instruction
system.cpu1.commit.op_class_0::SimdFloatAdd            0      0.00%     62.64% # Class of committed instruction
system.cpu1.commit.op_class_0::SimdFloatAlu            0      0.00%     62.64% # Class of committed instruction
system.cpu1.commit.op_class_0::SimdFloatCmp            0      0.00%     62.64% # Class of committed instruction
system.cpu1.commit.op_class_0::SimdFloatCvt            0      0.00%     62.64% # Class of committed instruction
system.cpu1.commit.op_class_0::SimdFloatDiv            0      0.00%     62.64% # Class of committed instruction
system.cpu1.commit.op_class_0::SimdFloatMisc            0      0.00%     62.64% # Class of committed instruction
system.cpu1.commit.op_class_0::SimdFloatMult            0      0.00%     62.64% # Class of committed instruction
system.cpu1.commit.op_class_0::SimdFloatMultAcc            0      0.00%     62.64% # Class of committed instruction
system.cpu1.commit.op_class_0::SimdFloatSqrt            0      0.00%     62.64% # Class of committed instruction
system.cpu1.commit.op_class_0::SimdReduceAdd            0      0.00%     62.64% # Class of committed instruction
system.cpu1.commit.op_class_0::SimdReduceAlu            0      0.00%     62.64% # Class of committed instruction
system.cpu1.commit.op_class_0::SimdReduceCmp            0      0.00%     62.64% # Class of committed instruction
system.cpu1.commit.op_class_0::SimdFloatReduceAdd            0      0.00%     62.64% # Class of committed instruction
system.cpu1.commit.op_class_0::SimdFloatReduceCmp            0      0.00%     62.64% # Class of committed instruction
system.cpu1.commit.op_class_0::SimdAes              0      0.00%     62.64% # Class of committed instruction
system.cpu1.commit.op_class_0::SimdAesMix            0      0.00%     62.64% # Class of committed instruction
system.cpu1.commit.op_class_0::SimdSha1Hash            0      0.00%     62.64% # Class of committed instruction
system.cpu1.commit.op_class_0::SimdSha1Hash2            0      0.00%     62.64% # Class of committed instruction
system.cpu1.commit.op_class_0::SimdSha256Hash            0      0.00%     62.64% # Class of committed instruction
system.cpu1.commit.op_class_0::SimdSha256Hash2            0      0.00%     62.64% # Class of committed instruction
system.cpu1.commit.op_class_0::SimdShaSigma2            0      0.00%     62.64% # Class of committed instruction
system.cpu1.commit.op_class_0::SimdShaSigma3            0      0.00%     62.64% # Class of committed instruction
system.cpu1.commit.op_class_0::SimdPredAlu            0      0.00%     62.64% # Class of committed instruction
system.cpu1.commit.op_class_0::MemRead       17930261     31.54%     94.18% # Class of committed instruction
system.cpu1.commit.op_class_0::MemWrite       3309832      5.82%    100.00% # Class of committed instruction
system.cpu1.commit.op_class_0::FloatMemRead            0      0.00%    100.00% # Class of committed instruction
system.cpu1.commit.op_class_0::FloatMemWrite           12      0.00%    100.00% # Class of committed instruction
system.cpu1.commit.op_class_0::IprAccess            0      0.00%    100.00% # Class of committed instruction
system.cpu1.commit.op_class_0::InstPrefetch            0      0.00%    100.00% # Class of committed instruction
system.cpu1.commit.op_class_0::total         56844994                       # Class of committed instruction
system.cpu1.commit.refs                      21240105                       # Number of memory references committed
system.cpu1.commit.swp_count                        0                       # Number of s/w prefetches committed
system.cpu1.commit.vec_insts                        0                       # Number of committed Vector instructions.
system.cpu1.committedInsts                   55033617                       # Number of Instructions Simulated
system.cpu1.committedOps                     56844994                       # Number of Ops (including micro ops) Simulated
system.cpu1.cpi                              5.678454                       # CPI: Cycles Per Instruction
system.cpu1.cpi_total                        5.678454                       # CPI: Total CPI of All Threads
system.cpu1.decode.BlockedCycles            268894044                       # Number of cycles decode is blocked
system.cpu1.decode.BranchMispred               699711                       # Number of times decode detected a branch misprediction
system.cpu1.decode.BranchResolved             8157308                       # Number of times decode resolved a branch
system.cpu1.decode.DecodedInsts              80104135                       # Number of instructions handled by decode
system.cpu1.decode.IdleCycles                11874070                       # Number of cycles decode is idle
system.cpu1.decode.RunCycles                 26185978                       # Number of cycles decode is running
system.cpu1.decode.SquashCycles                934387                       # Number of cycles decode is squashing
system.cpu1.decode.SquashedInsts              1036105                       # Number of squashed instructions handled by decode
system.cpu1.decode.UnblockCycles              4262588                       # Number of cycles decode is unblocking
system.cpu1.dtb.accesses                            0                       # DTB accesses
system.cpu1.dtb.hits                                0                       # DTB hits
system.cpu1.dtb.misses                              0                       # DTB misses
system.cpu1.dtb.read_accesses                       0                       # DTB read accesses
system.cpu1.dtb.read_hits                           0                       # DTB read hits
system.cpu1.dtb.read_misses                         0                       # DTB read misses
system.cpu1.dtb.write_accesses                      0                       # DTB write accesses
system.cpu1.dtb.write_hits                          0                       # DTB write hits
system.cpu1.dtb.write_misses                        0                       # DTB write misses
system.cpu1.fetch.Branches                   18727030                       # Number of branches that fetch encountered
system.cpu1.fetch.CacheLines                 11321857                       # Number of cache lines fetched
system.cpu1.fetch.Cycles                    298179669                       # Number of cycles fetch has run and was not squashing or blocked
system.cpu1.fetch.IcacheSquashes                73840                       # Number of outstanding Icache misses that were squashed
system.cpu1.fetch.IcacheWaitRetryStallCycles            5                       # Number of stall cycles due to full MSHR
system.cpu1.fetch.Insts                      89090379                       # Number of instructions fetch has processed
system.cpu1.fetch.MiscStallCycles                   4                       # Number of cycles fetch has spent waiting on interrupts, or bad addresses, or out of MSHRs
system.cpu1.fetch.PendingTrapStallCycles           15                       # Number of stall cycles due to pending traps
system.cpu1.fetch.SquashCycles                3250430                       # Number of cycles fetch has spent squashing
system.cpu1.fetch.branchRate                 0.059925                       # Number of branch fetches per cycle
system.cpu1.fetch.icacheStallCycles          12346159                       # Number of cycles fetch is stalled on an Icache miss
system.cpu1.fetch.predictedBranches           9174135                       # Number of branches that fetch has predicted taken
system.cpu1.fetch.rate                       0.285084                       # Number of inst fetches per cycle
system.cpu1.fetch.rateDist::samples         312151067                       # Number of instructions fetched each cycle (Total)
system.cpu1.fetch.rateDist::mean             0.296079                       # Number of instructions fetched each cycle (Total)
system.cpu1.fetch.rateDist::stdev            0.796520                       # Number of instructions fetched each cycle (Total)
system.cpu1.fetch.rateDist::underflows              0      0.00%      0.00% # Number of instructions fetched each cycle (Total)
system.cpu1.fetch.rateDist::0               260091218     83.32%     83.32% # Number of instructions fetched each cycle (Total)
system.cpu1.fetch.rateDist::1                28126488      9.01%     92.33% # Number of instructions fetched each cycle (Total)
system.cpu1.fetch.rateDist::2                14097525      4.52%     96.85% # Number of instructions fetched each cycle (Total)
system.cpu1.fetch.rateDist::3                 5949012      1.91%     98.75% # Number of instructions fetched each cycle (Total)
system.cpu1.fetch.rateDist::4                 1574255      0.50%     99.26% # Number of instructions fetched each cycle (Total)
system.cpu1.fetch.rateDist::5                 1928523      0.62%     99.88% # Number of instructions fetched each cycle (Total)
system.cpu1.fetch.rateDist::6                  377799      0.12%    100.00% # Number of instructions fetched each cycle (Total)
system.cpu1.fetch.rateDist::7                    3513      0.00%    100.00% # Number of instructions fetched each cycle (Total)
system.cpu1.fetch.rateDist::8                    2734      0.00%    100.00% # Number of instructions fetched each cycle (Total)
system.cpu1.fetch.rateDist::overflows               0      0.00%    100.00% # Number of instructions fetched each cycle (Total)
system.cpu1.fetch.rateDist::min_value               0                       # Number of instructions fetched each cycle (Total)
system.cpu1.fetch.rateDist::max_value               8                       # Number of instructions fetched each cycle (Total)
system.cpu1.fetch.rateDist::total           312151067                       # Number of instructions fetched each cycle (Total)
system.cpu1.fp_regfile_reads                       12                       # number of floating regfile reads
system.cpu1.idleCycles                         354819                       # Total number of cycles that the CPU has spent unscheduled due to idling
system.cpu1.iew.branchMispredicts              993115                       # Number of branch mispredicts detected at execute
system.cpu1.iew.exec_branches                14294404                       # Number of branches executed
system.cpu1.iew.exec_nop                            0                       # number of nop insts executed
system.cpu1.iew.exec_rate                    0.202487                       # Inst execution rate
system.cpu1.iew.exec_refs                    22359254                       # number of memory reference insts executed
system.cpu1.iew.exec_stores                   5192050                       # Number of stores executed
system.cpu1.iew.exec_swp                            0                       # number of swp insts executed
system.cpu1.iew.iewBlockCycles              235483002                       # Number of cycles IEW is blocking
system.cpu1.iew.iewDispLoadInsts             21443110                       # Number of dispatched load instructions
system.cpu1.iew.iewDispNonSpecInsts           2538079                       # Number of dispatched non-speculative instructions
system.cpu1.iew.iewDispSquashedInsts          1033764                       # Number of squashed instructions skipped by dispatch
system.cpu1.iew.iewDispStoreInsts             6701985                       # Number of dispatched store instructions
system.cpu1.iew.iewDispatchedInsts           75468324                       # Number of instructions dispatched to IQ
system.cpu1.iew.iewExecLoadInsts             17167204                       # Number of load instructions executed
system.cpu1.iew.iewExecSquashedInsts           841398                       # Number of squashed instructions skipped in execute
system.cpu1.iew.iewExecutedInsts             63278349                       # Number of executed instructions
system.cpu1.iew.iewIQFullEvents               1579733                       # Number of times the IQ has become full, causing a stall
system.cpu1.iew.iewIdleCycles                       0                       # Number of cycles IEW is idle
system.cpu1.iew.iewLSQFullEvents              2172694                       # Number of times the LSQ has become full, causing a stall
system.cpu1.iew.iewSquashCycles                934387                       # Number of cycles IEW is squashing
system.cpu1.iew.iewUnblockCycles              5742255                       # Number of cycles IEW is unblocking
system.cpu1.iew.lsq.thread0.blockedLoads            0                       # Number of blocked loads due to partial load-store forwarding
system.cpu1.iew.lsq.thread0.cacheBlocked        18167                       # Number of times an access to memory failed due to the cache being blocked
system.cpu1.iew.lsq.thread0.forwLoads          239364                       # Number of loads that had data forwarded from stores
system.cpu1.iew.lsq.thread0.ignoredResponses         5341                       # Number of memory responses ignored because the instruction is squashed
system.cpu1.iew.lsq.thread0.invAddrLoads            0                       # Number of loads ignored due to an invalid address
system.cpu1.iew.lsq.thread0.invAddrSwpfs            0                       # Number of software prefetches ignored due to an invalid address
system.cpu1.iew.lsq.thread0.memOrderViolation          404                       # Number of memory ordering violations
system.cpu1.iew.lsq.thread0.rescheduledLoads         1216                       # Number of loads that were rescheduled
system.cpu1.iew.lsq.thread0.squashedLoads      5324048                       # Number of loads squashed
system.cpu1.iew.lsq.thread0.squashedStores      1580942                       # Number of stores squashed
system.cpu1.iew.memOrderViolationEvents           404                       # Number of memory order violations
system.cpu1.iew.predictedNotTakenIncorrect       197277                       # Number of branches that were predicted not taken incorrectly
system.cpu1.iew.predictedTakenIncorrect        795838                       # Number of branches that were predicted taken incorrectly
system.cpu1.iew.wb_consumers                 35517894                       # num instructions consuming a value
system.cpu1.iew.wb_count                     62914565                       # cumulative count of insts written-back
system.cpu1.iew.wb_fanout                    0.864598                       # average fanout of values written-back
system.cpu1.iew.wb_producers                 30708683                       # num instructions producing a value
system.cpu1.iew.wb_rate                      0.201323                       # insts written-back per cycle
system.cpu1.iew.wb_sent                      62930671                       # cumulative count of insts sent to commit
system.cpu1.int_regfile_reads                78911792                       # number of integer regfile reads
system.cpu1.int_regfile_writes               41907949                       # number of integer regfile writes
system.cpu1.ipc                              0.176104                       # IPC: Instructions Per Cycle
system.cpu1.ipc_total                        0.176104                       # IPC: Total IPC of All Threads
system.cpu1.iq.FU_type_0::No_OpClass          3622624      5.65%      5.65% # Type of FU issued
system.cpu1.iq.FU_type_0::IntAlu             37979104     59.23%     64.88% # Type of FU issued
system.cpu1.iq.FU_type_0::IntMult                  45      0.00%     64.88% # Type of FU issued
system.cpu1.iq.FU_type_0::IntDiv                   88      0.00%     64.88% # Type of FU issued
system.cpu1.iq.FU_type_0::FloatAdd                  0      0.00%     64.88% # Type of FU issued
system.cpu1.iq.FU_type_0::FloatCmp                  0      0.00%     64.88% # Type of FU issued
system.cpu1.iq.FU_type_0::FloatCvt                  0      0.00%     64.88% # Type of FU issued
system.cpu1.iq.FU_type_0::FloatMult                 0      0.00%     64.88% # Type of FU issued
system.cpu1.iq.FU_type_0::FloatMultAcc              0      0.00%     64.88% # Type of FU issued
system.cpu1.iq.FU_type_0::FloatDiv                  0      0.00%     64.88% # Type of FU issued
system.cpu1.iq.FU_type_0::FloatMisc                 0      0.00%     64.88% # Type of FU issued
system.cpu1.iq.FU_type_0::FloatSqrt                 0      0.00%     64.88% # Type of FU issued
system.cpu1.iq.FU_type_0::SimdAdd                   0      0.00%     64.88% # Type of FU issued
system.cpu1.iq.FU_type_0::SimdAddAcc                0      0.00%     64.88% # Type of FU issued
system.cpu1.iq.FU_type_0::SimdAlu                   0      0.00%     64.88% # Type of FU issued
system.cpu1.iq.FU_type_0::SimdCmp                   0      0.00%     64.88% # Type of FU issued
system.cpu1.iq.FU_type_0::SimdCvt                   0      0.00%     64.88% # Type of FU issued
system.cpu1.iq.FU_type_0::SimdMisc                  0      0.00%     64.88% # Type of FU issued
system.cpu1.iq.FU_type_0::SimdMult                  0      0.00%     64.88% # Type of FU issued
system.cpu1.iq.FU_type_0::SimdMultAcc               0      0.00%     64.88% # Type of FU issued
system.cpu1.iq.FU_type_0::SimdShift                 0      0.00%     64.88% # Type of FU issued
system.cpu1.iq.FU_type_0::SimdShiftAcc              0      0.00%     64.88% # Type of FU issued
system.cpu1.iq.FU_type_0::SimdDiv                   0      0.00%     64.88% # Type of FU issued
system.cpu1.iq.FU_type_0::SimdSqrt                  0      0.00%     64.88% # Type of FU issued
system.cpu1.iq.FU_type_0::SimdFloatAdd              0      0.00%     64.88% # Type of FU issued
system.cpu1.iq.FU_type_0::SimdFloatAlu              0      0.00%     64.88% # Type of FU issued
system.cpu1.iq.FU_type_0::SimdFloatCmp              0      0.00%     64.88% # Type of FU issued
system.cpu1.iq.FU_type_0::SimdFloatCvt              0      0.00%     64.88% # Type of FU issued
system.cpu1.iq.FU_type_0::SimdFloatDiv              0      0.00%     64.88% # Type of FU issued
system.cpu1.iq.FU_type_0::SimdFloatMisc             0      0.00%     64.88% # Type of FU issued
system.cpu1.iq.FU_type_0::SimdFloatMult             0      0.00%     64.88% # Type of FU issued
system.cpu1.iq.FU_type_0::SimdFloatMultAcc            0      0.00%     64.88% # Type of FU issued
system.cpu1.iq.FU_type_0::SimdFloatSqrt             0      0.00%     64.88% # Type of FU issued
system.cpu1.iq.FU_type_0::SimdReduceAdd             0      0.00%     64.88% # Type of FU issued
system.cpu1.iq.FU_type_0::SimdReduceAlu             0      0.00%     64.88% # Type of FU issued
system.cpu1.iq.FU_type_0::SimdReduceCmp             0      0.00%     64.88% # Type of FU issued
system.cpu1.iq.FU_type_0::SimdFloatReduceAdd            0      0.00%     64.88% # Type of FU issued
system.cpu1.iq.FU_type_0::SimdFloatReduceCmp            0      0.00%     64.88% # Type of FU issued
system.cpu1.iq.FU_type_0::SimdAes                   0      0.00%     64.88% # Type of FU issued
system.cpu1.iq.FU_type_0::SimdAesMix                0      0.00%     64.88% # Type of FU issued
system.cpu1.iq.FU_type_0::SimdSha1Hash              0      0.00%     64.88% # Type of FU issued
system.cpu1.iq.FU_type_0::SimdSha1Hash2             0      0.00%     64.88% # Type of FU issued
system.cpu1.iq.FU_type_0::SimdSha256Hash            0      0.00%     64.88% # Type of FU issued
system.cpu1.iq.FU_type_0::SimdSha256Hash2            0      0.00%     64.88% # Type of FU issued
system.cpu1.iq.FU_type_0::SimdShaSigma2             0      0.00%     64.88% # Type of FU issued
system.cpu1.iq.FU_type_0::SimdShaSigma3             0      0.00%     64.88% # Type of FU issued
system.cpu1.iq.FU_type_0::SimdPredAlu               0      0.00%     64.88% # Type of FU issued
system.cpu1.iq.FU_type_0::MemRead            19126687     29.83%     94.71% # Type of FU issued
system.cpu1.iq.FU_type_0::MemWrite            3391187      5.29%    100.00% # Type of FU issued
system.cpu1.iq.FU_type_0::FloatMemRead              0      0.00%    100.00% # Type of FU issued
system.cpu1.iq.FU_type_0::FloatMemWrite            12      0.00%    100.00% # Type of FU issued
system.cpu1.iq.FU_type_0::IprAccess                 0      0.00%    100.00% # Type of FU issued
system.cpu1.iq.FU_type_0::InstPrefetch              0      0.00%    100.00% # Type of FU issued
system.cpu1.iq.FU_type_0::total              64119747                       # Type of FU issued
system.cpu1.iq.fp_alu_accesses                     14                       # Number of floating point alu accesses
system.cpu1.iq.fp_inst_queue_reads                 26                       # Number of floating instruction queue reads
system.cpu1.iq.fp_inst_queue_wakeup_accesses           12                       # Number of floating instruction queue wakeup accesses
system.cpu1.iq.fp_inst_queue_writes                12                       # Number of floating instruction queue writes
system.cpu1.iq.fu_busy_cnt                    1869595                       # FU busy when requested
system.cpu1.iq.fu_busy_rate                  0.029158                       # FU busy rate (busy events/executed inst)
system.cpu1.iq.fu_full::No_OpClass                  0      0.00%      0.00% # attempts to use FU when none available
system.cpu1.iq.fu_full::IntAlu                 305280     16.33%     16.33% # attempts to use FU when none available
system.cpu1.iq.fu_full::IntMult                     0      0.00%     16.33% # attempts to use FU when none available
system.cpu1.iq.fu_full::IntDiv                      0      0.00%     16.33% # attempts to use FU when none available
system.cpu1.iq.fu_full::FloatAdd                    0      0.00%     16.33% # attempts to use FU when none available
system.cpu1.iq.fu_full::FloatCmp                    0      0.00%     16.33% # attempts to use FU when none available
system.cpu1.iq.fu_full::FloatCvt                    0      0.00%     16.33% # attempts to use FU when none available
system.cpu1.iq.fu_full::FloatMult                   0      0.00%     16.33% # attempts to use FU when none available
system.cpu1.iq.fu_full::FloatMultAcc                0      0.00%     16.33% # attempts to use FU when none available
system.cpu1.iq.fu_full::FloatDiv                    0      0.00%     16.33% # attempts to use FU when none available
system.cpu1.iq.fu_full::FloatMisc                   0      0.00%     16.33% # attempts to use FU when none available
system.cpu1.iq.fu_full::FloatSqrt                   0      0.00%     16.33% # attempts to use FU when none available
system.cpu1.iq.fu_full::SimdAdd                     0      0.00%     16.33% # attempts to use FU when none available
system.cpu1.iq.fu_full::SimdAddAcc                  0      0.00%     16.33% # attempts to use FU when none available
system.cpu1.iq.fu_full::SimdAlu                     0      0.00%     16.33% # attempts to use FU when none available
system.cpu1.iq.fu_full::SimdCmp                     0      0.00%     16.33% # attempts to use FU when none available
system.cpu1.iq.fu_full::SimdCvt                     0      0.00%     16.33% # attempts to use FU when none available
system.cpu1.iq.fu_full::SimdMisc                    0      0.00%     16.33% # attempts to use FU when none available
system.cpu1.iq.fu_full::SimdMult                    0      0.00%     16.33% # attempts to use FU when none available
system.cpu1.iq.fu_full::SimdMultAcc                 0      0.00%     16.33% # attempts to use FU when none available
system.cpu1.iq.fu_full::SimdShift                   0      0.00%     16.33% # attempts to use FU when none available
system.cpu1.iq.fu_full::SimdShiftAcc                0      0.00%     16.33% # attempts to use FU when none available
system.cpu1.iq.fu_full::SimdDiv                     0      0.00%     16.33% # attempts to use FU when none available
system.cpu1.iq.fu_full::SimdSqrt                    0      0.00%     16.33% # attempts to use FU when none available
system.cpu1.iq.fu_full::SimdFloatAdd                0      0.00%     16.33% # attempts to use FU when none available
system.cpu1.iq.fu_full::SimdFloatAlu                0      0.00%     16.33% # attempts to use FU when none available
system.cpu1.iq.fu_full::SimdFloatCmp                0      0.00%     16.33% # attempts to use FU when none available
system.cpu1.iq.fu_full::SimdFloatCvt                0      0.00%     16.33% # attempts to use FU when none available
system.cpu1.iq.fu_full::SimdFloatDiv                0      0.00%     16.33% # attempts to use FU when none available
system.cpu1.iq.fu_full::SimdFloatMisc               0      0.00%     16.33% # attempts to use FU when none available
system.cpu1.iq.fu_full::SimdFloatMult               0      0.00%     16.33% # attempts to use FU when none available
system.cpu1.iq.fu_full::SimdFloatMultAcc            0      0.00%     16.33% # attempts to use FU when none available
system.cpu1.iq.fu_full::SimdFloatSqrt               0      0.00%     16.33% # attempts to use FU when none available
system.cpu1.iq.fu_full::SimdReduceAdd               0      0.00%     16.33% # attempts to use FU when none available
system.cpu1.iq.fu_full::SimdReduceAlu               0      0.00%     16.33% # attempts to use FU when none available
system.cpu1.iq.fu_full::SimdReduceCmp               0      0.00%     16.33% # attempts to use FU when none available
system.cpu1.iq.fu_full::SimdFloatReduceAdd            0      0.00%     16.33% # attempts to use FU when none available
system.cpu1.iq.fu_full::SimdFloatReduceCmp            0      0.00%     16.33% # attempts to use FU when none available
system.cpu1.iq.fu_full::SimdAes                     0      0.00%     16.33% # attempts to use FU when none available
system.cpu1.iq.fu_full::SimdAesMix                  0      0.00%     16.33% # attempts to use FU when none available
system.cpu1.iq.fu_full::SimdSha1Hash                0      0.00%     16.33% # attempts to use FU when none available
system.cpu1.iq.fu_full::SimdSha1Hash2               0      0.00%     16.33% # attempts to use FU when none available
system.cpu1.iq.fu_full::SimdSha256Hash              0      0.00%     16.33% # attempts to use FU when none available
system.cpu1.iq.fu_full::SimdSha256Hash2             0      0.00%     16.33% # attempts to use FU when none available
system.cpu1.iq.fu_full::SimdShaSigma2               0      0.00%     16.33% # attempts to use FU when none available
system.cpu1.iq.fu_full::SimdShaSigma3               0      0.00%     16.33% # attempts to use FU when none available
system.cpu1.iq.fu_full::SimdPredAlu                 0      0.00%     16.33% # attempts to use FU when none available
[...]
system.cpu1.dcache.ReadReq_avg_mshr_miss_latency::.cpu1.data 66388.511913                       # average ReadReq mshr miss latency
system.cpu1.dcache.ReadReq_avg_mshr_miss_latency::total 66388.511913                       # average ReadReq mshr miss latency
system.cpu1.dcache.WriteReq_hits::.cpu1.data       420013                       # number of WriteReq hits
system.cpu1.dcache.WriteReq_hits::total        420013                       # number of WriteReq hits
system.cpu1.dcache.WriteReq_misses::.cpu1.data       373334                       # number of WriteReq misses
system.cpu1.dcache.WriteReq_misses::total       373334                       # number of WriteReq misses
system.cpu1.dcache.WriteReq_miss_latency::.cpu1.data  23847487497                       # number of WriteReq miss cycles
system.cpu1.dcache.WriteReq_miss_latency::total  23847487497                       # number of WriteReq miss cycles
system.cpu1.dcache.WriteReq_accesses::.cpu1.data       793347                       # number of WriteReq accesses(hits+misses)
system.cpu1.dcache.WriteReq_accesses::total       793347                       # number of WriteReq accesses(hits+misses)
system.cpu1.dcache.WriteReq_miss_rate::.cpu1.data     0.470581                       # miss rate for WriteReq accesses
system.cpu1.dcache.WriteReq_miss_rate::total     0.470581                       # miss rate for WriteReq accesses
system.cpu1.dcache.WriteReq_avg_miss_latency::.cpu1.data 63877.084586                       # average WriteReq miss latency
system.cpu1.dcache.WriteReq_avg_miss_latency::total 63877.084586                       # average WriteReq miss latency
system.cpu1.dcache.WriteReq_mshr_hits::.cpu1.data       333627                       # number of WriteReq MSHR hits
system.cpu1.dcache.WriteReq_mshr_hits::total       333627                       # number of WriteReq MSHR hits
system.cpu1.dcache.WriteReq_mshr_misses::.cpu1.data        39707                       # number of WriteReq MSHR misses
system.cpu1.dcache.WriteReq_mshr_misses::total        39707                       # number of WriteReq MSHR misses
system.cpu1.dcache.WriteReq_mshr_miss_latency::.cpu1.data   2279649000                       # number of WriteReq MSHR miss cycles
system.cpu1.dcache.WriteReq_mshr_miss_latency::total   2279649000                       # number of WriteReq MSHR miss cycles
system.cpu1.dcache.WriteReq_mshr_miss_rate::.cpu1.data     0.050050                       # mshr miss rate for WriteReq accesses
system.cpu1.dcache.WriteReq_mshr_miss_rate::total     0.050050                       # mshr miss rate for WriteReq accesses
system.cpu1.dcache.WriteReq_avg_mshr_miss_latency::.cpu1.data 57411.766187                       # average WriteReq mshr miss latency
system.cpu1.dcache.WriteReq_avg_mshr_miss_latency::total 57411.766187                       # average WriteReq mshr miss latency
system.cpu1.dcache.LoadLockedReq_hits::.cpu1.data       583686                       # number of LoadLockedReq hits
system.cpu1.dcache.LoadLockedReq_hits::total       583686                       # number of LoadLockedReq hits
system.cpu1.dcache.LoadLockedReq_misses::.cpu1.data         8000                       # number of LoadLockedReq misses
system.cpu1.dcache.LoadLockedReq_misses::total         8000                       # number of LoadLockedReq misses
system.cpu1.dcache.LoadLockedReq_miss_latency::.cpu1.data    208879500                       # number of LoadLockedReq miss cycles
system.cpu1.dcache.LoadLockedReq_miss_latency::total    208879500                       # number of LoadLockedReq miss cycles
system.cpu1.dcache.LoadLockedReq_accesses::.cpu1.data       591686                       # number of LoadLockedReq accesses(hits+misses)
system.cpu1.dcache.LoadLockedReq_accesses::total       591686                       # number of LoadLockedReq accesses(hits+misses)
system.cpu1.dcache.LoadLockedReq_miss_rate::.cpu1.data     0.013521                       # miss rate for LoadLockedReq accesses
system.cpu1.dcache.LoadLockedReq_miss_rate::total     0.013521                       # miss rate for LoadLockedReq accesses
system.cpu1.dcache.LoadLockedReq_avg_miss_latency::.cpu1.data 26109.937500                       # average LoadLockedReq miss latency
system.cpu1.dcache.LoadLockedReq_avg_miss_latency::total 26109.937500                       # average LoadLockedReq miss latency
system.cpu1.dcache.LoadLockedReq_mshr_hits::.cpu1.data          113                       # number of LoadLockedReq MSHR hits
system.cpu1.dcache.LoadLockedReq_mshr_hits::total          113                       # number of LoadLockedReq MSHR hits
system.cpu1.dcache.LoadLockedReq_mshr_misses::.cpu1.data         7887                       # number of LoadLockedReq MSHR misses
system.cpu1.dcache.LoadLockedReq_mshr_misses::total         7887                       # number of LoadLockedReq MSHR misses
system.cpu1.dcache.LoadLockedReq_mshr_miss_latency::.cpu1.data    191104500                       # number of LoadLockedReq MSHR miss cycles
system.cpu1.dcache.LoadLockedReq_mshr_miss_latency::total    191104500                       # number of LoadLockedReq MSHR miss cycles
system.cpu1.dcache.LoadLockedReq_mshr_miss_rate::.cpu1.data     0.013330                       # mshr miss rate for LoadLockedReq accesses
system.cpu1.dcache.LoadLockedReq_mshr_miss_rate::total     0.013330                       # mshr miss rate for LoadLockedReq accesses
system.cpu1.dcache.LoadLockedReq_avg_mshr_miss_latency::.cpu1.data 24230.315709                       # average LoadLockedReq mshr miss latency
system.cpu1.dcache.LoadLockedReq_avg_mshr_miss_latency::total 24230.315709                       # average LoadLockedReq mshr miss latency
system.cpu1.dcache.StoreCondReq_hits::.cpu1.data       591092                       # number of StoreCondReq hits
system.cpu1.dcache.StoreCondReq_hits::total       591092                       # number of StoreCondReq hits
system.cpu1.dcache.StoreCondReq_misses::.cpu1.data          341                       # number of StoreCondReq misses
system.cpu1.dcache.StoreCondReq_misses::total          341                       # number of StoreCondReq misses
system.cpu1.dcache.StoreCondReq_miss_latency::.cpu1.data      2257000                       # number of StoreCondReq miss cycles
system.cpu1.dcache.StoreCondReq_miss_latency::total      2257000                       # number of StoreCondReq miss cycles
system.cpu1.dcache.StoreCondReq_accesses::.cpu1.data       591433                       # number of StoreCondReq accesses(hits+misses)
system.cpu1.dcache.StoreCondReq_accesses::total       591433                       # number of StoreCondReq accesses(hits+misses)
system.cpu1.dcache.StoreCondReq_miss_rate::.cpu1.data     0.000577                       # miss rate for StoreCondReq accesses
system.cpu1.dcache.StoreCondReq_miss_rate::total     0.000577                       # miss rate for StoreCondReq accesses
system.cpu1.dcache.StoreCondReq_avg_miss_latency::.cpu1.data  6618.768328                       # average StoreCondReq miss latency
system.cpu1.dcache.StoreCondReq_avg_miss_latency::total  6618.768328                       # average StoreCondReq miss latency
system.cpu1.dcache.StoreCondReq_mshr_misses::.cpu1.data          341                       # number of StoreCondReq MSHR misses
system.cpu1.dcache.StoreCondReq_mshr_misses::total          341                       # number of StoreCondReq MSHR misses
system.cpu1.dcache.StoreCondReq_mshr_miss_latency::.cpu1.data      1924000                       # number of StoreCondReq MSHR miss cycles
system.cpu1.dcache.StoreCondReq_mshr_miss_latency::total      1924000                       # number of StoreCondReq MSHR miss cycles
system.cpu1.dcache.StoreCondReq_mshr_miss_rate::.cpu1.data     0.000577                       # mshr miss rate for StoreCondReq accesses
system.cpu1.dcache.StoreCondReq_mshr_miss_rate::total     0.000577                       # mshr miss rate for StoreCondReq accesses
system.cpu1.dcache.StoreCondReq_avg_mshr_miss_latency::.cpu1.data  5642.228739                       # average StoreCondReq mshr miss latency
system.cpu1.dcache.StoreCondReq_avg_mshr_miss_latency::total  5642.228739                       # average StoreCondReq mshr miss latency
system.cpu1.dcache.StoreCondFailReq_miss_latency::.cpu1.data       114500                       # number of StoreCondFailReq miss cycles
system.cpu1.dcache.StoreCondFailReq_miss_latency::total       114500                       # number of StoreCondFailReq miss cycles
system.cpu1.dcache.StoreCondFailReq_avg_miss_latency::.cpu1.data          inf                       # average StoreCondFailReq miss latency
system.cpu1.dcache.StoreCondFailReq_avg_miss_latency::total          inf                       # average StoreCondFailReq miss latency
system.cpu1.dcache.StoreCondFailReq_mshr_miss_latency::.cpu1.data       106500                       # number of StoreCondFailReq MSHR miss cycles
system.cpu1.dcache.StoreCondFailReq_mshr_miss_latency::total       106500                       # number of StoreCondFailReq MSHR miss cycles
system.cpu1.dcache.StoreCondFailReq_avg_mshr_miss_latency::.cpu1.data          inf                       # average StoreCondFailReq mshr miss latency
system.cpu1.dcache.StoreCondFailReq_avg_mshr_miss_latency::total          inf                       # average StoreCondFailReq mshr miss latency
system.cpu1.dcache.SwapReq_hits::.cpu1.data          506                       # number of SwapReq hits
system.cpu1.dcache.SwapReq_hits::total            506                       # number of SwapReq hits
system.cpu1.dcache.SwapReq_misses::.cpu1.data          533                       # number of SwapReq misses
system.cpu1.dcache.SwapReq_misses::total          533                       # number of SwapReq misses
system.cpu1.dcache.SwapReq_miss_latency::.cpu1.data      5214500                       # number of SwapReq miss cycles
system.cpu1.dcache.SwapReq_miss_latency::total      5214500                       # number of SwapReq miss cycles
system.cpu1.dcache.SwapReq_accesses::.cpu1.data         1039                       # number of SwapReq accesses(hits+misses)
system.cpu1.dcache.SwapReq_accesses::total         1039                       # number of SwapReq accesses(hits+misses)
system.cpu1.dcache.SwapReq_miss_rate::.cpu1.data     0.512993                       # miss rate for SwapReq accesses
system.cpu1.dcache.SwapReq_miss_rate::total     0.512993                       # miss rate for SwapReq accesses
system.cpu1.dcache.SwapReq_avg_miss_latency::.cpu1.data  9783.302064                       # average SwapReq miss latency
system.cpu1.dcache.SwapReq_avg_miss_latency::total  9783.302064                       # average SwapReq miss latency
system.cpu1.dcache.SwapReq_mshr_misses::.cpu1.data          533                       # number of SwapReq MSHR misses
system.cpu1.dcache.SwapReq_mshr_misses::total          533                       # number of SwapReq MSHR misses
system.cpu1.dcache.SwapReq_mshr_miss_latency::.cpu1.data      4681500                       # number of SwapReq MSHR miss cycles
system.cpu1.dcache.SwapReq_mshr_miss_latency::total      4681500                       # number of SwapReq MSHR miss cycles
system.cpu1.dcache.SwapReq_mshr_miss_rate::.cpu1.data     0.512993                       # mshr miss rate for SwapReq accesses
system.cpu1.dcache.SwapReq_mshr_miss_rate::total     0.512993                       # mshr miss rate for SwapReq accesses
system.cpu1.dcache.SwapReq_avg_mshr_miss_latency::.cpu1.data  8783.302064                       # average SwapReq mshr miss latency
system.cpu1.dcache.SwapReq_avg_mshr_miss_latency::total  8783.302064                       # average SwapReq mshr miss latency
system.cpu1.dcache.tags.pwrStateResidencyTicks::UNDEFINED 104842777000                       # Cumulative time (in ticks) in various power states
system.cpu1.dcache.tags.tagsinuse           31.805702                       # Cycle average of tags in use
system.cpu1.dcache.tags.total_refs           18425142                       # Total number of references to valid blocks.
system.cpu1.dcache.tags.sampled_refs          1168356                       # Sample count of references to valid blocks.
system.cpu1.dcache.tags.avg_refs            15.770144                       # Average number of references to valid blocks.
system.cpu1.dcache.tags.warmup_cycle                0                       # Cycle when the warmup percentage was hit.
system.cpu1.dcache.tags.occ_blocks::.cpu1.data    31.805702                       # Average occupied blocks per requestor
system.cpu1.dcache.tags.occ_percent::.cpu1.data     0.993928                       # Average percentage of cache occupancy
system.cpu1.dcache.tags.occ_percent::total     0.993928                       # Average percentage of cache occupancy
system.cpu1.dcache.tags.occ_task_id_blocks::1024           30                       # Occupied blocks per task id
system.cpu1.dcache.tags.age_task_id_blocks_1024::1           30                       # Occupied blocks per task id
system.cpu1.dcache.tags.occ_task_id_percent::1024     0.937500                       # Percentage of cache occupancy per task id
system.cpu1.dcache.tags.tag_accesses         41552424                       # Number of tag accesses
system.cpu1.dcache.tags.data_accesses        41552424                       # Number of data accesses
system.cpu_clk_domain.clock                       500                       # Clock period in ticks
system.tol2bus.pwrStateResidencyTicks::UNDEFINED 104842777000                       # Cumulative time (in ticks) in various power states
system.tol2bus.trans_dist::ReadResp           3219132                       # Transaction distribution
system.tol2bus.trans_dist::WritebackDirty       577311                       # Transaction distribution
system.tol2bus.trans_dist::WritebackClean      2993933                       # Transaction distribution
system.tol2bus.trans_dist::CleanEvict         7018434                       # Transaction distribution
system.tol2bus.trans_dist::HardPFReq          5275552                       # Transaction distribution
system.tol2bus.trans_dist::UpgradeReq            1003                       # Transaction distribution
system.tol2bus.trans_dist::SCUpgradeReq          1754                       # Transaction distribution
system.tol2bus.trans_dist::UpgradeResp           2757                       # Transaction distribution
system.tol2bus.trans_dist::SCUpgradeFailReq            8                       # Transaction distribution
system.tol2bus.trans_dist::UpgradeFailResp            8                       # Transaction distribution
system.tol2bus.trans_dist::ReadExReq            92556                       # Transaction distribution
system.tol2bus.trans_dist::ReadExResp           92556                       # Transaction distribution
system.tol2bus.trans_dist::ReadCleanReq        226304                       # Transaction distribution
system.tol2bus.trans_dist::ReadSharedReq      2992829                       # Transaction distribution
system.tol2bus.trans_dist::InvalidateReq          573                       # Transaction distribution
system.tol2bus.trans_dist::InvalidateResp          573                       # Transaction distribution
system.tol2bus.pkt_count_system.cpu0.icache.mem_side::system.l2.cpu_side       664048                       # Packet count per connected master and slave (bytes)
system.tol2bus.pkt_count_system.cpu0.dcache.mem_side::system.l2.cpu_side      5753797                       # Packet count per connected master and slave (bytes)
system.tol2bus.pkt_count_system.cpu1.icache.mem_side::system.l2.cpu_side        14796                       # Packet count per connected master and slave (bytes)
system.tol2bus.pkt_count_system.cpu1.dcache.mem_side::system.l2.cpu_side      3501458                       # Packet count per connected master and slave (bytes)
system.tol2bus.pkt_count::total               9934099                       # Packet count per connected master and slave (bytes)
system.tol2bus.pkt_size_system.cpu0.icache.mem_side::system.l2.cpu_side     28331264                       # Cumulative packet size per connected master and slave (bytes)
system.tol2bus.pkt_size_system.cpu0.dcache.mem_side::system.l2.cpu_side    245275200                       # Cumulative packet size per connected master and slave (bytes)
system.tol2bus.pkt_size_system.cpu1.icache.mem_side::system.l2.cpu_side       631296                       # Cumulative packet size per connected master and slave (bytes)
system.tol2bus.pkt_size_system.cpu1.dcache.mem_side::system.l2.cpu_side    149262720                       # Cumulative packet size per connected master and slave (bytes)
system.tol2bus.pkt_size::total              423500480                       # Cumulative packet size per connected master and slave (bytes)
system.tol2bus.snoops                        12561184                       # Total snoops (count)
system.tol2bus.snoopTraffic                  17007680                       # Total snoop traffic (bytes)
system.tol2bus.snoop_fanout::samples         15871332                       # Request fanout histogram
system.tol2bus.snoop_fanout::mean            0.164201                       # Request fanout histogram
system.tol2bus.snoop_fanout::stdev           0.385469                       # Request fanout histogram
system.tol2bus.snoop_fanout::underflows             0      0.00%      0.00% # Request fanout histogram
system.tol2bus.snoop_fanout::0               13355285     84.15%     84.15% # Request fanout histogram
system.tol2bus.snoop_fanout::1                2426000     15.29%     99.43% # Request fanout histogram
system.tol2bus.snoop_fanout::2                  90047      0.57%    100.00% # Request fanout histogram
system.tol2bus.snoop_fanout::3                      0      0.00%    100.00% # Request fanout histogram
system.tol2bus.snoop_fanout::4                      0      0.00%    100.00% # Request fanout histogram
system.tol2bus.snoop_fanout::5                      0      0.00%    100.00% # Request fanout histogram
system.tol2bus.snoop_fanout::6                      0      0.00%    100.00% # Request fanout histogram
system.tol2bus.snoop_fanout::7                      0      0.00%    100.00% # Request fanout histogram
system.tol2bus.snoop_fanout::8                      0      0.00%    100.00% # Request fanout histogram
system.tol2bus.snoop_fanout::overflows              0      0.00%    100.00% # Request fanout histogram
system.tol2bus.snoop_fanout::min_value              0                       # Request fanout histogram
system.tol2bus.snoop_fanout::max_value              2                       # Request fanout histogram
system.tol2bus.snoop_fanout::total           15871332                       # Request fanout histogram
system.tol2bus.reqLayer0.occupancy         6620921983                       # Layer occupancy (ticks)
system.tol2bus.reqLayer0.utilization              6.3                       # Layer utilization (%)
system.tol2bus.respLayer1.occupancy        2879201352                       # Layer occupancy (ticks)
system.tol2bus.respLayer1.utilization             2.7                       # Layer utilization (%)
system.tol2bus.respLayer0.occupancy         332146819                       # Layer occupancy (ticks)
system.tol2bus.respLayer0.utilization             0.3                       # Layer utilization (%)
system.tol2bus.respLayer3.occupancy        1754406428                       # Layer occupancy (ticks)
system.tol2bus.respLayer3.utilization             1.7                       # Layer utilization (%)
system.tol2bus.respLayer2.occupancy           7459876                       # Layer occupancy (ticks)
system.tol2bus.respLayer2.utilization             0.0                       # Layer utilization (%)

---------- End Simulation Statistics   ----------
