
---------- Begin Simulation Statistics ----------
final_tick                               1040195608000                       # Number of ticks from beginning of simulation (restored from checkpoints and never reset)
host_inst_rate                                  69883                       # Simulator instruction rate (inst/s)
host_mem_usage                                 701564                       # Number of bytes of host memory used
host_op_rate                                    70112                       # Simulator op (including micro ops) rate (op/s)
host_seconds                                 15826.26                       # Real time elapsed on the host
host_tick_rate                               65725923                       # Simulator tick rate (ticks/s)
sim_freq                                 1000000000000                       # Frequency of simulated ticks
sim_insts                                  1105990319                       # Number of instructions simulated
sim_ops                                    1109615687                       # Number of ops (including micro ops) simulated
sim_seconds                                  1.040196                       # Number of seconds simulated
sim_ticks                                1040195608000                       # Number of ticks simulated
system.cpu0.branchPred.BTBCorrect                   0                       # Number of correct BTB predictions (this stat may not work properly.
system.cpu0.branchPred.BTBHitPct            87.725461                       # BTB Hit Percentage
system.cpu0.branchPred.BTBHits              143697674                       # Number of BTB hits
system.cpu0.branchPred.BTBLookups           163803841                       # Number of BTB lookups
system.cpu0.branchPred.RASInCorrect                 0                       # Number of incorrect RAS predictions.
system.cpu0.branchPred.condIncorrect         12769993                       # Number of conditional branches incorrect
system.cpu0.branchPred.condPredicted        224288911                       # Number of conditional branches predicted
system.cpu0.branchPred.indirectHits          18433973                       # Number of indirect target hits.
system.cpu0.branchPred.indirectLookups       18556319                       # Number of indirect predictor lookups.
system.cpu0.branchPred.indirectMisses          122346                       # Number of indirect misses.
system.cpu0.branchPred.lookups              285474720                       # Number of BP lookups
system.cpu0.branchPred.usedRAS                      0                       # Number of times the RAS was used to get a target.
system.cpu0.branchPredindirectMispredicted      1863176                       # Number of mispredicted indirect branches.
system.cpu0.commit.amos                       1811477                       # Number of atomic instructions committed
system.cpu0.commit.branchMispredicts          8484549                       # The number of times a branch was mispredicted
system.cpu0.commit.branches                 260720965                       # Number of branches committed
system.cpu0.commit.bw_lim_events             29719957                       # number cycles where commit BW limit reached
system.cpu0.commit.commitNonSpecStalls        5441394                       # The number of times commit has been forced to stall to communicate backwards
system.cpu0.commit.commitSquashedInsts       90711127                       # The number of squashed insts skipped by commit
system.cpu0.commit.committedInsts          1050889017                       # Number of instructions committed
system.cpu0.commit.committedOps            1052703011                       # Number of ops (including micro ops) committed
system.cpu0.commit.committed_per_cycle::samples   1923601025                       # Number of insts commited each cycle
system.cpu0.commit.committed_per_cycle::mean     0.547256                       # Number of insts commited each cycle
system.cpu0.commit.committed_per_cycle::stdev     1.308389                       # Number of insts commited each cycle
system.cpu0.commit.committed_per_cycle::underflows            0      0.00%      0.00% # Number of insts commited each cycle
system.cpu0.commit.committed_per_cycle::0   1407038030     73.15%     73.15% # Number of insts commited each cycle
system.cpu0.commit.committed_per_cycle::1    315209213     16.39%     89.53% # Number of insts commited each cycle
system.cpu0.commit.committed_per_cycle::2     71014925      3.69%     93.22% # Number of insts commited each cycle
system.cpu0.commit.committed_per_cycle::3     67489524      3.51%     96.73% # Number of insts commited each cycle
system.cpu0.commit.committed_per_cycle::4     19828384      1.03%     97.76% # Number of insts commited each cycle
system.cpu0.commit.committed_per_cycle::5      7360529      0.38%     98.15% # Number of insts commited each cycle
system.cpu0.commit.committed_per_cycle::6      2463702      0.13%     98.27% # Number of insts commited each cycle
system.cpu0.commit.committed_per_cycle::7      3476761      0.18%     98.45% # Number of insts commited each cycle
system.cpu0.commit.committed_per_cycle::8     29719957      1.55%    100.00% # Number of insts commited each cycle
system.cpu0.commit.committed_per_cycle::overflows            0      0.00%    100.00% # Number of insts commited each cycle
system.cpu0.commit.committed_per_cycle::min_value            0                       # Number of insts commited each cycle
system.cpu0.commit.committed_per_cycle::max_value            8                       # Number of insts commited each cycle
system.cpu0.commit.committed_per_cycle::total   1923601025                       # Number of insts commited each cycle
system.cpu0.commit.fp_insts                        46                       # Number of committed floating point instructions.
system.cpu0.commit.function_calls            20859563                       # Number of function calls committed.
system.cpu0.commit.int_insts               1016070472                       # Number of committed integer instructions.
system.cpu0.commit.loads                    326242349                       # Number of loads committed
system.cpu0.commit.membars                    3625351                       # Number of memory barriers committed
system.cpu0.commit.op_class_0::No_OpClass      3625357      0.34%      0.34% # Class of committed instruction
system.cpu0.commit.op_class_0::IntAlu       584014105     55.48%     55.82% # Class of committed instruction
system.cpu0.commit.op_class_0::IntMult        8030359      0.76%     56.58% # Class of committed instruction
system.cpu0.commit.op_class_0::IntDiv         1811037      0.17%     56.76% # Class of committed instruction
system.cpu0.commit.op_class_0::FloatAdd             0      0.00%     56.76% # Class of committed instruction
system.cpu0.commit.op_class_0::FloatCmp             4      0.00%     56.76% # Class of committed instruction
system.cpu0.commit.op_class_0::FloatCvt            12      0.00%     56.76% # Class of committed instruction
system.cpu0.commit.op_class_0::FloatMult            0      0.00%     56.76% # Class of committed instruction
system.cpu0.commit.op_class_0::FloatMultAcc            0      0.00%     56.76% # Class of committed instruction
system.cpu0.commit.op_class_0::FloatDiv             2      0.00%     56.76% # Class of committed instruction
system.cpu0.commit.op_class_0::FloatMisc            4      0.00%     56.76% # Class of committed instruction
system.cpu0.commit.op_class_0::FloatSqrt            0      0.00%     56.76% # Class of committed instruction
system.cpu0.commit.op_class_0::SimdAdd              0      0.00%     56.76% # Class of committed instruction
system.cpu0.commit.op_class_0::SimdAddAcc            0      0.00%     56.76% # Class of committed instruction
system.cpu0.commit.op_class_0::SimdAlu              0      0.00%     56.76% # Class of committed instruction
system.cpu0.commit.op_class_0::SimdCmp              0      0.00%     56.76% # Class of committed instruction
system.cpu0.commit.op_class_0::SimdCvt              0      0.00%     56.76% # Class of committed instruction
system.cpu0.commit.op_class_0::SimdMisc             0      0.00%     56.76% # Class of committed instruction
system.cpu0.commit.op_class_0::SimdMult             0      0.00%     56.76% # Class of committed instruction
system.cpu0.commit.op_class_0::SimdMultAcc            0      0.00%     56.76% # Class of committed instruction
system.cpu0.commit.op_class_0::SimdShift            0      0.00%     56.76% # Class of committed instruction
system.cpu0.commit.op_class_0::SimdShiftAcc            0      0.00%     56.76% # Class of committed instruction
system.cpu0.commit.op_class_0::SimdDiv              0      0.00%     56.76% # Class of committed instruction
system.cpu0.commit.op_class_0::SimdSqrt             0      0.00%     56.76% # Class of committed instruction
system.cpu0.commit.op_class_0::SimdFloatAdd            0      0.00%     56.76% # Class of committed instruction
system.cpu0.commit.op_class_0::SimdFloatAlu            0      0.00%     56.76% # Class of committed instruction
system.cpu0.commit.op_class_0::SimdFloatCmp            0      0.00%     56.76% # Class of committed instruction
system.cpu0.commit.op_class_0::SimdFloatCvt            0      0.00%     56.76% # Class of committed instruction
system.cpu0.commit.op_class_0::SimdFloatDiv            0      0.00%     56.76% # Class of committed instruction
system.cpu0.commit.op_class_0::SimdFloatMisc            0      0.00%     56.76% # Class of committed instruction
system.cpu0.commit.op_class_0::SimdFloatMult            0      0.00%     56.76% # Class of committed instruction
system.cpu0.commit.op_class_0::SimdFloatMultAcc            0      0.00%     56.76% # Class of committed instruction
system.cpu0.commit.op_class_0::SimdFloatSqrt            0      0.00%     56.76% # Class of committed instruction
system.cpu0.commit.op_class_0::SimdReduceAdd            0      0.00%     56.76% # Class of committed instruction
system.cpu0.commit.op_class_0::SimdReduceAlu            0      0.00%     56.76% # Class of committed instruction
system.cpu0.commit.op_class_0::SimdReduceCmp            0      0.00%     56.76% # Class of committed instruction
system.cpu0.commit.op_class_0::SimdFloatReduceAdd            0      0.00%     56.76% # Class of committed instruction
system.cpu0.commit.op_class_0::SimdFloatReduceCmp            0      0.00%     56.76% # Class of committed instruction
system.cpu0.commit.op_class_0::SimdAes              0      0.00%     56.76% # Class of committed instruction
system.cpu0.commit.op_class_0::SimdAesMix            0      0.00%     56.76% # Class of committed instruction
system.cpu0.commit.op_class_0::SimdSha1Hash            0      0.00%     56.76% # Class of committed instruction
system.cpu0.commit.op_class_0::SimdSha1Hash2            0      0.00%     56.76% # Class of committed instruction
system.cpu0.commit.op_class_0::SimdSha256Hash            0      0.00%     56.76% # Class of committed instruction
system.cpu0.commit.op_class_0::SimdSha256Hash2            0      0.00%     56.76% # Class of committed instruction
system.cpu0.commit.op_class_0::SimdShaSigma2            0      0.00%     56.76% # Class of committed instruction
system.cpu0.commit.op_class_0::SimdShaSigma3            0      0.00%     56.76% # Class of committed instruction
system.cpu0.commit.op_class_0::SimdPredAlu            0      0.00%     56.76% # Class of committed instruction
system.cpu0.commit.op_class_0::MemRead      328053818     31.16%     87.92% # Class of committed instruction
system.cpu0.commit.op_class_0::MemWrite     127168289     12.08%    100.00% # Class of committed instruction
system.cpu0.commit.op_class_0::FloatMemRead            8      0.00%    100.00% # Class of committed instruction
system.cpu0.commit.op_class_0::FloatMemWrite           16      0.00%    100.00% # Class of committed instruction
system.cpu0.commit.op_class_0::IprAccess            0      0.00%    100.00% # Class of committed instruction
system.cpu0.commit.op_class_0::InstPrefetch            0      0.00%    100.00% # Class of committed instruction
system.cpu0.commit.op_class_0::total       1052703011                       # Class of committed instruction
system.cpu0.commit.refs                     455222131                       # Number of memory references committed
system.cpu0.commit.swp_count                        0                       # Number of s/w prefetches committed
system.cpu0.commit.vec_insts                        0                       # Number of committed Vector instructions.
system.cpu0.committedInsts                 1050889017                       # Number of Instructions Simulated
system.cpu0.committedOps                   1052703011                       # Number of Ops (including micro ops) Simulated
system.cpu0.cpi                              1.976038                       # CPI: Cycles Per Instruction
system.cpu0.cpi_total                        1.976038                       # CPI: Total CPI of All Threads
system.cpu0.decode.BlockedCycles            323908897                       # Number of cycles decode is blocked
system.cpu0.decode.BranchMispred              4293782                       # Number of times decode detected a branch misprediction
system.cpu0.decode.BranchResolved           142161615                       # Number of times decode resolved a branch
system.cpu0.decode.DecodedInsts            1166911535                       # Number of instructions handled by decode
system.cpu0.decode.IdleCycles               802427519                       # Number of cycles decode is idle
system.cpu0.decode.RunCycles                799894418                       # Number of cycles decode is running
system.cpu0.decode.SquashCycles               8495997                       # Number of cycles decode is squashing
system.cpu0.decode.SquashedInsts              7869381                       # Number of squashed instructions handled by decode
system.cpu0.decode.UnblockCycles              5675083                       # Number of cycles decode is unblocking
system.cpu0.dtb.accesses                            0                       # DTB accesses
system.cpu0.dtb.hits                                0                       # DTB hits
system.cpu0.dtb.misses                              0                       # DTB misses
system.cpu0.dtb.read_accesses                       0                       # DTB read accesses
system.cpu0.dtb.read_hits                           0                       # DTB read hits
system.cpu0.dtb.read_misses                         0                       # DTB read misses
system.cpu0.dtb.write_accesses                      0                       # DTB write accesses
system.cpu0.dtb.write_hits                          0                       # DTB write hits
system.cpu0.dtb.write_misses                        0                       # DTB write misses
system.cpu0.fetch.Branches                  285474720                       # Number of branches that fetch encountered
system.cpu0.fetch.CacheLines                204488797                       # Number of cache lines fetched
system.cpu0.fetch.Cycles                   1131633487                       # Number of cycles fetch has run and was not squashing or blocked
system.cpu0.fetch.IcacheSquashes              5609400                       # Number of outstanding Icache misses that were squashed
system.cpu0.fetch.IcacheWaitRetryStallCycles          149                       # Number of stall cycles due to full MSHR
system.cpu0.fetch.Insts                    1191286320                       # Number of instructions fetch has processed
system.cpu0.fetch.MiscStallCycles                  32                       # Number of cycles fetch has spent waiting on interrupts, or bad addresses, or out of MSHRs
system.cpu0.fetch.PendingTrapStallCycles          126                       # Number of stall cycles due to pending traps
system.cpu0.fetch.SquashCycles               25562922                       # Number of cycles fetch has spent squashing
system.cpu0.fetch.branchRate                 0.137472                       # Number of branch fetches per cycle
system.cpu0.fetch.icacheStallCycles         795986659                       # Number of cycles fetch is stalled on an Icache miss
system.cpu0.fetch.predictedBranches         162131647                       # Number of branches that fetch has predicted taken
system.cpu0.fetch.rate                       0.573673                       # Number of inst fetches per cycle
system.cpu0.fetch.rateDist::samples        1940401914                       # Number of instructions fetched each cycle (Total)
system.cpu0.fetch.rateDist::mean             0.616493                       # Number of instructions fetched each cycle (Total)
system.cpu0.fetch.rateDist::stdev            0.905418                       # Number of instructions fetched each cycle (Total)
system.cpu0.fetch.rateDist::underflows              0      0.00%      0.00% # Number of instructions fetched each cycle (Total)
system.cpu0.fetch.rateDist::0              1098429480     56.61%     56.61% # Number of instructions fetched each cycle (Total)
system.cpu0.fetch.rateDist::1               618116571     31.86%     88.46% # Number of instructions fetched each cycle (Total)
system.cpu0.fetch.rateDist::2               134715611      6.94%     95.41% # Number of instructions fetched each cycle (Total)
system.cpu0.fetch.rateDist::3                69383563      3.58%     98.98% # Number of instructions fetched each cycle (Total)
system.cpu0.fetch.rateDist::4                 9152281      0.47%     99.45% # Number of instructions fetched each cycle (Total)
system.cpu0.fetch.rateDist::5                 5346007      0.28%     99.73% # Number of instructions fetched each cycle (Total)
system.cpu0.fetch.rateDist::6                 1522439      0.08%     99.81% # Number of instructions fetched each cycle (Total)
system.cpu0.fetch.rateDist::7                 1816332      0.09%     99.90% # Number of instructions fetched each cycle (Total)
system.cpu0.fetch.rateDist::8                 1919630      0.10%    100.00% # Number of instructions fetched each cycle (Total)
system.cpu0.fetch.rateDist::overflows               0      0.00%    100.00% # Number of instructions fetched each cycle (Total)
system.cpu0.fetch.rateDist::min_value               0                       # Number of instructions fetched each cycle (Total)
system.cpu0.fetch.rateDist::max_value               8                       # Number of instructions fetched each cycle (Total)
system.cpu0.fetch.rateDist::total          1940401914                       # Number of instructions fetched each cycle (Total)
system.cpu0.fp_regfile_reads                       40                       # number of floating regfile reads
system.cpu0.fp_regfile_writes                      25                       # number of floating regfile writes
system.cpu0.idleCycles                      136194564                       # Total number of cycles that the CPU has spent unscheduled due to idling
system.cpu0.iew.branchMispredicts             8592727                       # Number of branch mispredicts detected at execute
system.cpu0.iew.exec_branches               269669539                       # Number of branches executed
system.cpu0.iew.exec_nop                            0                       # number of nop insts executed
system.cpu0.iew.exec_rate                    0.532455                       # Inst execution rate
system.cpu0.iew.exec_refs                   483718766                       # number of memory reference insts executed
system.cpu0.iew.exec_stores                 133862335                       # Number of stores executed
system.cpu0.iew.exec_swp                            0                       # number of swp insts executed
system.cpu0.iew.iewBlockCycles              265692545                       # Number of cycles IEW is blocking
system.cpu0.iew.iewDispLoadInsts            359458758                       # Number of dispatched load instructions
system.cpu0.iew.iewDispNonSpecInsts           3590420                       # Number of dispatched non-speculative instructions
system.cpu0.iew.iewDispSquashedInsts          3446738                       # Number of squashed instructions skipped by dispatch
system.cpu0.iew.iewDispStoreInsts           140228490                       # Number of dispatched store instructions
system.cpu0.iew.iewDispatchedInsts         1143396969                       # Number of instructions dispatched to IQ
system.cpu0.iew.iewExecLoadInsts            349856431                       # Number of load instructions executed
system.cpu0.iew.iewExecSquashedInsts          8054300                       # Number of squashed instructions skipped in execute
system.cpu0.iew.iewExecutedInsts           1105695120                       # Number of executed instructions
system.cpu0.iew.iewIQFullEvents               2174324                       # Number of times the IQ has become full, causing a stall
system.cpu0.iew.iewIdleCycles                       0                       # Number of cycles IEW is idle
system.cpu0.iew.iewLSQFullEvents              3746750                       # Number of times the LSQ has become full, causing a stall
system.cpu0.iew.iewSquashCycles               8495997                       # Number of cycles IEW is squashing
system.cpu0.iew.iewUnblockCycles              7885929                       # Number of cycles IEW is unblocking
system.cpu0.iew.lsq.thread0.blockedLoads            0                       # Number of blocked loads due to partial load-store forwarding
system.cpu0.iew.lsq.thread0.cacheBlocked       187696                       # Number of times an access to memory failed due to the cache being blocked
system.cpu0.iew.lsq.thread0.forwLoads        16086185                       # Number of loads that had data forwarded from stores
system.cpu0.iew.lsq.thread0.ignoredResponses        45531                       # Number of memory responses ignored because the instruction is squashed
system.cpu0.iew.lsq.thread0.invAddrLoads            0                       # Number of loads ignored due to an invalid address
system.cpu0.iew.lsq.thread0.invAddrSwpfs            0                       # Number of software prefetches ignored due to an invalid address
system.cpu0.iew.lsq.thread0.memOrderViolation        13188                       # Number of memory ordering violations
system.cpu0.iew.lsq.thread0.rescheduledLoads      4295491                       # Number of loads that were rescheduled
system.cpu0.iew.lsq.thread0.squashedLoads     33216409                       # Number of loads squashed
system.cpu0.iew.lsq.thread0.squashedStores     11248708                       # Number of stores squashed
system.cpu0.iew.memOrderViolationEvents         13188                       # Number of memory order violations
system.cpu0.iew.predictedNotTakenIncorrect      1161977                       # Number of branches that were predicted not taken incorrectly
system.cpu0.iew.predictedTakenIncorrect       7430750                       # Number of branches that were predicted taken incorrectly
system.cpu0.iew.wb_consumers                457858241                       # num instructions consuming a value
system.cpu0.iew.wb_count                   1095256896                       # cumulative count of insts written-back
system.cpu0.iew.wb_fanout                    0.881417                       # average fanout of values written-back
system.cpu0.iew.wb_producers                403564189                       # num instructions producing a value
system.cpu0.iew.wb_rate                      0.527429                       # insts written-back per cycle
system.cpu0.iew.wb_sent                    1095347730                       # cumulative count of insts sent to commit
system.cpu0.int_regfile_reads              1351768750                       # number of integer regfile reads
system.cpu0.int_regfile_writes              699823186                       # number of integer regfile writes
system.cpu0.ipc                              0.506063                       # IPC: Instructions Per Cycle
system.cpu0.ipc_total                        0.506063                       # IPC: Total IPC of All Threads
system.cpu0.iq.FU_type_0::No_OpClass          3626856      0.33%      0.33% # Type of FU issued
system.cpu0.iq.FU_type_0::IntAlu            611927493     54.94%     55.27% # Type of FU issued
system.cpu0.iq.FU_type_0::IntMult             8035668      0.72%     55.99% # Type of FU issued
system.cpu0.iq.FU_type_0::IntDiv              1811536      0.16%     56.15% # Type of FU issued
system.cpu0.iq.FU_type_0::FloatAdd                  0      0.00%     56.15% # Type of FU issued
system.cpu0.iq.FU_type_0::FloatCmp                  4      0.00%     56.15% # Type of FU issued
system.cpu0.iq.FU_type_0::FloatCvt                 12      0.00%     56.15% # Type of FU issued
system.cpu0.iq.FU_type_0::FloatMult                 0      0.00%     56.15% # Type of FU issued
system.cpu0.iq.FU_type_0::FloatMultAcc              0      0.00%     56.15% # Type of FU issued
system.cpu0.iq.FU_type_0::FloatDiv                  2      0.00%     56.15% # Type of FU issued
system.cpu0.iq.FU_type_0::FloatMisc                 4      0.00%     56.15% # Type of FU issued
system.cpu0.iq.FU_type_0::FloatSqrt                 0      0.00%     56.15% # Type of FU issued
system.cpu0.iq.FU_type_0::SimdAdd                   0      0.00%     56.15% # Type of FU issued
system.cpu0.iq.FU_type_0::SimdAddAcc                0      0.00%     56.15% # Type of FU issued
system.cpu0.iq.FU_type_0::SimdAlu                   0      0.00%     56.15% # Type of FU issued
system.cpu0.iq.FU_type_0::SimdCmp                   0      0.00%     56.15% # Type of FU issued
system.cpu0.iq.FU_type_0::SimdCvt                   0      0.00%     56.15% # Type of FU issued
system.cpu0.iq.FU_type_0::SimdMisc                  0      0.00%     56.15% # Type of FU issued
system.cpu0.iq.FU_type_0::SimdMult                  0      0.00%     56.15% # Type of FU issued
system.cpu0.iq.FU_type_0::SimdMultAcc               0      0.00%     56.15% # Type of FU issued
system.cpu0.iq.FU_type_0::SimdShift                 0      0.00%     56.15% # Type of FU issued
system.cpu0.iq.FU_type_0::SimdShiftAcc              0      0.00%     56.15% # Type of FU issued
system.cpu0.iq.FU_type_0::SimdDiv                   0      0.00%     56.15% # Type of FU issued
system.cpu0.iq.FU_type_0::SimdSqrt                  0      0.00%     56.15% # Type of FU issued
system.cpu0.iq.FU_type_0::SimdFloatAdd              0      0.00%     56.15% # Type of FU issued
system.cpu0.iq.FU_type_0::SimdFloatAlu              0      0.00%     56.15% # Type of FU issued
system.cpu0.iq.FU_type_0::SimdFloatCmp              0      0.00%     56.15% # Type of FU issued
system.cpu0.iq.FU_type_0::SimdFloatCvt              0      0.00%     56.15% # Type of FU issued
system.cpu0.iq.FU_type_0::SimdFloatDiv              0      0.00%     56.15% # Type of FU issued
system.cpu0.iq.FU_type_0::SimdFloatMisc             0      0.00%     56.15% # Type of FU issued
system.cpu0.iq.FU_type_0::SimdFloatMult             0      0.00%     56.15% # Type of FU issued
system.cpu0.iq.FU_type_0::SimdFloatMultAcc            0      0.00%     56.15% # Type of FU issued
system.cpu0.iq.FU_type_0::SimdFloatSqrt             0      0.00%     56.15% # Type of FU issued
system.cpu0.iq.FU_type_0::SimdReduceAdd             0      0.00%     56.15% # Type of FU issued
system.cpu0.iq.FU_type_0::SimdReduceAlu             0      0.00%     56.15% # Type of FU issued
system.cpu0.iq.FU_type_0::SimdReduceCmp             0      0.00%     56.15% # Type of FU issued
system.cpu0.iq.FU_type_0::SimdFloatReduceAdd            0      0.00%     56.15% # Type of FU issued
system.cpu0.iq.FU_type_0::SimdFloatReduceCmp            0      0.00%     56.15% # Type of FU issued
system.cpu0.iq.FU_type_0::SimdAes                   0      0.00%     56.15% # Type of FU issued
system.cpu0.iq.FU_type_0::SimdAesMix                0      0.00%     56.15% # Type of FU issued
system.cpu0.iq.FU_type_0::SimdSha1Hash              0      0.00%     56.15% # Type of FU issued
system.cpu0.iq.FU_type_0::SimdSha1Hash2             0      0.00%     56.15% # Type of FU issued
system.cpu0.iq.FU_type_0::SimdSha256Hash            0      0.00%     56.15% # Type of FU issued
system.cpu0.iq.FU_type_0::SimdSha256Hash2            0      0.00%     56.15% # Type of FU issued
system.cpu0.iq.FU_type_0::SimdShaSigma2             0      0.00%     56.15% # Type of FU issued
system.cpu0.iq.FU_type_0::SimdShaSigma3             0      0.00%     56.15% # Type of FU issued
system.cpu0.iq.FU_type_0::SimdPredAlu               0      0.00%     56.15% # Type of FU issued
system.cpu0.iq.FU_type_0::MemRead           354642648     31.84%     88.00% # Type of FU issued
system.cpu0.iq.FU_type_0::MemWrite          133705169     12.00%    100.00% # Type of FU issued
system.cpu0.iq.FU_type_0::FloatMemRead             13      0.00%    100.00% # Type of FU issued
system.cpu0.iq.FU_type_0::FloatMemWrite            16      0.00%    100.00% # Type of FU issued
system.cpu0.iq.FU_type_0::IprAccess                 0      0.00%    100.00% # Type of FU issued
system.cpu0.iq.FU_type_0::InstPrefetch              0      0.00%    100.00% # Type of FU issued
system.cpu0.iq.FU_type_0::total            1113749421                       # Type of FU issued
system.cpu0.iq.fp_alu_accesses                     53                       # Number of floating point alu accesses
system.cpu0.iq.fp_inst_queue_reads                104                       # Number of floating instruction queue reads
system.cpu0.iq.fp_inst_queue_wakeup_accesses           49                       # Number of floating instruction queue wakeup accesses
system.cpu0.iq.fp_inst_queue_writes                66                       # Number of floating instruction queue writes
system.cpu0.iq.fu_busy_cnt                    2400464                       # FU busy when requested
system.cpu0.iq.fu_busy_rate                  0.002155                       # FU busy rate (busy events/executed inst)
system.cpu0.iq.fu_full::No_OpClass                  0      0.00%      0.00% # attempts to use FU when none available
system.cpu0.iq.fu_full::IntAlu                 499576     20.81%     20.81% # attempts to use FU when none available
system.cpu0.iq.fu_full::IntMult                     0      0.00%     20.81% # attempts to use FU when none available
system.cpu0.iq.fu_full::IntDiv                      0      0.00%     20.81% # attempts to use FU when none available
system.cpu0.iq.fu_full::FloatAdd                    0      0.00%     20.81% # attempts to use FU when none available
system.cpu0.iq.fu_full::FloatCmp                    0      0.00%     20.81% # attempts to use FU when none available
system.cpu0.iq.fu_full::FloatCvt                    0      0.00%     20.81% # attempts to use FU when none available
system.cpu0.iq.fu_full::FloatMult                   0      0.00%     20.81% # attempts to use FU when none available
system.cpu0.iq.fu_full::FloatMultAcc                0      0.00%     20.81% # attempts to use FU when none available
system.cpu0.iq.fu_full::FloatDiv                    0      0.00%     20.81% # attempts to use FU when none available
system.cpu0.iq.fu_full::FloatMisc                   0      0.00%     20.81% # attempts to use FU when none available
system.cpu0.iq.fu_full::FloatSqrt                   0      0.00%     20.81% # attempts to use FU when none available
system.cpu0.iq.fu_full::SimdAdd                     0      0.00%     20.81% # attempts to use FU when none available
system.cpu0.iq.fu_full::SimdAddAcc                  0      0.00%     20.81% # attempts to use FU when none available
system.cpu0.iq.fu_full::SimdAlu                     0      0.00%     20.81% # attempts to use FU when none available
system.cpu0.iq.fu_full::SimdCmp                     0      0.00%     20.81% # attempts to use FU when none available
system.cpu0.iq.fu_full::SimdCvt                     0      0.00%     20.81% # attempts to use FU when none available
system.cpu0.iq.fu_full::SimdMisc                    0      0.00%     20.81% # attempts to use FU when none available
system.cpu0.iq.fu_full::SimdMult                    0      0.00%     20.81% # attempts to use FU when none available
system.cpu0.iq.fu_full::SimdMultAcc                 0      0.00%     20.81% # attempts to use FU when none available
system.cpu0.iq.fu_full::SimdShift                   0      0.00%     20.81% # attempts to use FU when none available
system.cpu0.iq.fu_full::SimdShiftAcc                0      0.00%     20.81% # attempts to use FU when none available
system.cpu0.iq.fu_full::SimdDiv                     0      0.00%     20.81% # attempts to use FU when none available
system.cpu0.iq.fu_full::SimdSqrt                    0      0.00%     20.81% # attempts to use FU when none available
system.cpu0.iq.fu_full::SimdFloatAdd                0      0.00%     20.81% # attempts to use FU when none available
system.cpu0.iq.fu_full::SimdFloatAlu                0      0.00%     20.81% # attempts to use FU when none available
system.cpu0.iq.fu_full::SimdFloatCmp                0      0.00%     20.81% # attempts to use FU when none available
system.cpu0.iq.fu_full::SimdFloatCvt                0      0.00%     20.81% # attempts to use FU when none available
system.cpu0.iq.fu_full::SimdFloatDiv                0      0.00%     20.81% # attempts to use FU when none available
system.cpu0.iq.fu_full::SimdFloatMisc               0      0.00%     20.81% # attempts to use FU when none available
system.cpu0.iq.fu_full::SimdFloatMult               0      0.00%     20.81% # attempts to use FU when none available
system.cpu0.iq.fu_full::SimdFloatMultAcc            0      0.00%     20.81% # attempts to use FU when none available
system.cpu0.iq.fu_full::SimdFloatSqrt               0      0.00%     20.81% # attempts to use FU when none available
system.cpu0.iq.fu_full::SimdReduceAdd               0      0.00%     20.81% # attempts to use FU when none available
system.cpu0.iq.fu_full::SimdReduceAlu               0      0.00%     20.81% # attempts to use FU when none available
system.cpu0.iq.fu_full::SimdReduceCmp               0      0.00%     20.81% # attempts to use FU when none available
system.cpu0.iq.fu_full::SimdFloatReduceAdd            0      0.00%     20.81% # attempts to use FU when none available
system.cpu0.iq.fu_full::SimdFloatReduceCmp            0      0.00%     20.81% # attempts to use FU when none available
system.cpu0.iq.fu_full::SimdAes                     0      0.00%     20.81% # attempts to use FU when none available
system.cpu0.iq.fu_full::SimdAesMix                  0      0.00%     20.81% # attempts to use FU when none available
system.cpu0.iq.fu_full::SimdSha1Hash                0      0.00%     20.81% # attempts to use FU when none available
system.cpu0.iq.fu_full::SimdSha1Hash2               0      0.00%     20.81% # attempts to use FU when none available
system.cpu0.iq.fu_full::SimdSha256Hash              0      0.00%     20.81% # attempts to use FU when none available
system.cpu0.iq.fu_full::SimdSha256Hash2             0      0.00%     20.81% # attempts to use FU when none available
system.cpu0.iq.fu_full::SimdShaSigma2               0      0.00%     20.81% # attempts to use FU when none available
system.cpu0.iq.fu_full::SimdShaSigma3               0      0.00%     20.81% # attempts to use FU when none available
system.cpu0.iq.fu_full::SimdPredAlu                 0      0.00%     20.81% # attempts to use FU when none available
system.cpu0.iq.fu_full::MemRead               1712017     71.32%     92.13% # attempts to use FU when none available
system.cpu0.iq.fu_full::MemWrite               188869      7.87%    100.00% # attempts to use FU when none available
system.cpu0.iq.fu_full::FloatMemRead                0      0.00%    100.00% # attempts to use FU when none available
system.cpu0.iq.fu_full::FloatMemWrite               2      0.00%    100.00% # attempts to use FU when none available
system.cpu0.iq.fu_full::IprAccess                   0      0.00%    100.00% # attempts to use FU when none available
system.cpu0.iq.fu_full::InstPrefetch                0      0.00%    100.00% # attempts to use FU when none available
system.cpu0.iq.int_alu_accesses            1112522976                       # Number of integer alu accesses
system.cpu0.iq.int_inst_queue_reads        4170453766                       # Number of integer instruction queue reads
system.cpu0.iq.int_inst_queue_wakeup_accesses   1095256847                       # Number of integer instruction queue wakeup accesses
system.cpu0.iq.int_inst_queue_writes       1234103015                       # Number of integer instruction queue writes
system.cpu0.iq.iqInstsAdded                1132632604                       # Number of instructions added to the IQ (excludes non-spec)
system.cpu0.iq.iqInstsIssued               1113749421                       # Number of instructions issued
system.cpu0.iq.iqNonSpecInstsAdded           10764365                       # Number of non-speculative instructions added to the IQ
system.cpu0.iq.iqSquashedInstsExamined       90693954                       # Number of squashed instructions iterated over during squash; mainly for profiling
system.cpu0.iq.iqSquashedInstsIssued           152651                       # Number of squashed instructions issued
system.cpu0.iq.iqSquashedNonSpecRemoved       5322971                       # Number of squashed non-spec instructions that were removed
system.cpu0.iq.iqSquashedOperandsExamined     50528663                       # Number of squashed operands that are examined and possibly removed from graph
system.cpu0.iq.issued_per_cycle::samples   1940401914                       # Number of insts issued each cycle
system.cpu0.iq.issued_per_cycle::mean        0.573979                       # Number of insts issued each cycle
system.cpu0.iq.issued_per_cycle::stdev       0.803022                       # Number of insts issued each cycle
system.cpu0.iq.issued_per_cycle::underflows            0      0.00%      0.00% # Number of insts issued each cycle
system.cpu0.iq.issued_per_cycle::0         1131164337     58.30%     58.30% # Number of insts issued each cycle
system.cpu0.iq.issued_per_cycle::1          564504342     29.09%     87.39% # Number of insts issued each cycle
system.cpu0.iq.issued_per_cycle::2          200907656     10.35%     97.74% # Number of insts issued each cycle
system.cpu0.iq.issued_per_cycle::3           33442457      1.72%     99.46% # Number of insts issued each cycle
system.cpu0.iq.issued_per_cycle::4            6654026      0.34%     99.81% # Number of insts issued each cycle
system.cpu0.iq.issued_per_cycle::5            2454005      0.13%     99.93% # Number of insts issued each cycle
system.cpu0.iq.issued_per_cycle::6             877921      0.05%     99.98% # Number of insts issued each cycle
system.cpu0.iq.issued_per_cycle::7             228619      0.01%     99.99% # Number of insts issued each cycle
system.cpu0.iq.issued_per_cycle::8             168551      0.01%    100.00% # Number of insts issued each cycle
system.cpu0.iq.issued_per_cycle::overflows            0      0.00%    100.00% # Number of insts issued each cycle
system.cpu0.iq.issued_per_cycle::min_value            0                       # Number of insts issued each cycle
system.cpu0.iq.issued_per_cycle::max_value            8                       # Number of insts issued each cycle
system.cpu0.iq.issued_per_cycle::total     1940401914                       # Number of insts issued each cycle
system.cpu0.iq.rate                          0.536334                       # Inst issue rate
system.cpu0.iq.vec_alu_accesses                     0                       # Number of vector alu accesses
system.cpu0.iq.vec_inst_queue_reads                 0                       # Number of vector instruction queue reads
system.cpu0.iq.vec_inst_queue_wakeup_accesses            0                       # Number of vector instruction queue wakeup accesses
system.cpu0.iq.vec_inst_queue_writes                0                       # Number of vector instruction queue writes
system.cpu0.itb.accesses                            0                       # DTB accesses
system.cpu0.itb.hits                                0                       # DTB hits
system.cpu0.itb.misses                              0                       # DTB misses
system.cpu0.itb.read_accesses                       0                       # DTB read accesses
system.cpu0.itb.read_hits                           0                       # DTB read hits
system.cpu0.itb.read_misses                         0                       # DTB read misses
system.cpu0.itb.write_accesses                      0                       # DTB write accesses
system.cpu0.itb.write_hits                          0                       # DTB write hits
system.cpu0.itb.write_misses                        0                       # DTB write misses
system.cpu0.memDep0.conflictingLoads         26895073                       # Number of conflicting loads.
system.cpu0.memDep0.conflictingStores         4793134                       # Number of conflicting stores.
system.cpu0.memDep0.insertedLoads           359458758                       # Number of loads inserted to the mem dependence unit.
system.cpu0.memDep0.insertedStores          140228490                       # Number of stores inserted to the mem dependence unit.
system.cpu0.misc_regfile_reads                   1504                       # number of misc regfile reads
system.cpu0.misc_regfile_writes                    22                       # number of misc regfile writes
system.cpu0.numCycles                      2076596478                       # number of cpu cycles simulated
system.cpu0.numWorkItemsCompleted                   0                       # number of work items this cpu completed
system.cpu0.numWorkItemsStarted                     0                       # number of work items this cpu started
system.cpu0.quiesceCycles                     3795193                       # Total number of cycles that CPU has spent quiesced or waiting for an interrupt
system.cpu0.rename.BlockCycles              285010116                       # Number of cycles rename is blocking
system.cpu0.rename.CommittedMaps            670704492                       # Number of HB maps that are committed
system.cpu0.rename.IQFullEvents              11210803                       # Number of times rename has blocked due to IQ full
system.cpu0.rename.IdleCycles               813598610                       # Number of cycles rename is idle
system.cpu0.rename.LQFullEvents              10388833                       # Number of times rename has blocked due to LQ full
system.cpu0.rename.ROBFullEvents                19908                       # Number of times rename has blocked due to ROB full
system.cpu0.rename.RenameLookups           1412564575                       # Number of register rename lookups that rename has made
system.cpu0.rename.RenamedInsts            1155351883                       # Number of instructions processed by rename
system.cpu0.rename.RenamedOperands          740943958                       # Number of destination operands rename has renamed
system.cpu0.rename.RunCycles                792765579                       # Number of cycles rename is running
system.cpu0.rename.SQFullEvents              18395215                       # Number of times rename has blocked due to SQ full
system.cpu0.rename.SquashCycles               8495997                       # Number of cycles rename is squashing
system.cpu0.rename.UnblockCycles             40394768                       # Number of cycles rename is unblocking
system.cpu0.rename.UndoneMaps                70239458                       # Number of HB maps that are undone due to squashing
system.cpu0.rename.fp_rename_lookups               40                       # Number of floating rename lookups
system.cpu0.rename.int_rename_lookups      1412564535                       # Number of integer rename lookups
system.cpu0.rename.serializeStallCycles        136844                       # count of cycles rename stalled for serializing inst
system.cpu0.rename.serializingInsts              4728                       # count of serializing insts renamed
system.cpu0.rename.skidInsts                 22524178                       # count of insts added to the skid buffer
system.cpu0.rename.tempSerializingInsts          4722                       # count of temporary serializing insts renamed
system.cpu0.rob.rob_reads                  3037276148                       # The number of ROB reads
system.cpu0.rob.rob_writes                 2303647914                       # The number of ROB writes
system.cpu0.timesIdled                       25771474                       # Number of times that the entire CPU went into an idle state and unscheduled itself
system.cpu0.workload.numSyscalls                 1471                       # Number of system calls
system.cpu1.branchPred.BTBCorrect                   0                       # Number of correct BTB predictions (this stat may not work properly.
system.cpu1.branchPred.BTBHitPct            94.672359                       # BTB Hit Percentage
system.cpu1.branchPred.BTBHits                9976807                       # Number of BTB hits
system.cpu1.branchPred.BTBLookups            10538247                       # Number of BTB lookups
system.cpu1.branchPred.RASInCorrect                 0                       # Number of incorrect RAS predictions.
system.cpu1.branchPred.condIncorrect          2060156                       # Number of conditional branches incorrect
system.cpu1.branchPred.condPredicted         19283239                       # Number of conditional branches predicted
system.cpu1.branchPred.indirectHits            345687                       # Number of indirect target hits.
system.cpu1.branchPred.indirectLookups         527952                       # Number of indirect predictor lookups.
system.cpu1.branchPred.indirectMisses          182265                       # Number of indirect misses.
system.cpu1.branchPred.lookups               21025259                       # Number of BP lookups
system.cpu1.branchPred.usedRAS                      0                       # Number of times the RAS was used to get a target.
system.cpu1.branchPredindirectMispredicted         4797                       # Number of mispredicted indirect branches.
system.cpu1.commit.amos                       1811199                       # Number of atomic instructions committed
system.cpu1.commit.branchMispredicts          1192312                       # The number of times a branch was mispredicted
system.cpu1.commit.branches                  12207126                       # Number of branches committed
system.cpu1.commit.bw_lim_events              1270799                       # number cycles where commit BW limit reached
system.cpu1.commit.commitNonSpecStalls        5434262                       # The number of times commit has been forced to stall to communicate backwards
system.cpu1.commit.commitSquashedInsts       23290707                       # The number of squashed insts skipped by commit
system.cpu1.commit.committedInsts            55101302                       # Number of instructions committed
system.cpu1.commit.committedOps              56912676                       # Number of ops (including micro ops) committed
system.cpu1.commit.committed_per_cycle::samples    334240336                       # Number of insts commited each cycle
system.cpu1.commit.committed_per_cycle::mean     0.170275                       # Number of insts commited each cycle
system.cpu1.commit.committed_per_cycle::stdev     0.814777                       # Number of insts commited each cycle
system.cpu1.commit.committed_per_cycle::underflows            0      0.00%      0.00% # Number of insts commited each cycle
system.cpu1.commit.committed_per_cycle::0    310763871     92.98%     92.98% # Number of insts commited each cycle
system.cpu1.commit.committed_per_cycle::1     11607033      3.47%     96.45% # Number of insts commited each cycle
system.cpu1.commit.committed_per_cycle::2      3829328      1.15%     97.59% # Number of insts commited each cycle
system.cpu1.commit.committed_per_cycle::3      3650988      1.09%     98.69% # Number of insts commited each cycle
system.cpu1.commit.committed_per_cycle::4       998350      0.30%     98.99% # Number of insts commited each cycle
system.cpu1.commit.committed_per_cycle::5       292817      0.09%     99.07% # Number of insts commited each cycle
system.cpu1.commit.committed_per_cycle::6      1719904      0.51%     99.59% # Number of insts commited each cycle
system.cpu1.commit.committed_per_cycle::7       107246      0.03%     99.62% # Number of insts commited each cycle
system.cpu1.commit.committed_per_cycle::8      1270799      0.38%    100.00% # Number of insts commited each cycle
system.cpu1.commit.committed_per_cycle::overflows            0      0.00%    100.00% # Number of insts commited each cycle
system.cpu1.commit.committed_per_cycle::min_value            0                       # Number of insts commited each cycle
system.cpu1.commit.committed_per_cycle::max_value            8                       # Number of insts commited each cycle
system.cpu1.commit.committed_per_cycle::total    334240336                       # Number of insts commited each cycle
system.cpu1.commit.fp_insts                        12                       # Number of committed floating point instructions.
system.cpu1.commit.function_calls              503230                       # Number of function calls committed.
system.cpu1.commit.int_insts                 52998095                       # Number of committed integer instructions.
system.cpu1.commit.loads                     16129748                       # Number of loads committed
system.cpu1.commit.membars                    3622519                       # Number of memory barriers committed
system.cpu1.commit.op_class_0::No_OpClass      3622519      6.37%      6.37% # Class of committed instruction
system.cpu1.commit.op_class_0::IntAlu        32027819     56.28%     62.64% # Class of committed instruction
system.cpu1.commit.op_class_0::IntMult             43      0.00%     62.64% # Class of committed instruction
system.cpu1.commit.op_class_0::IntDiv              86      0.00%     62.64% # Class of committed instruction
system.cpu1.commit.op_class_0::FloatAdd             0      0.00%     62.64% # Class of committed instruction
system.cpu1.commit.op_class_0::FloatCmp             0      0.00%     62.64% # Class of committed instruction
system.cpu1.commit.op_class_0::FloatCvt             0      0.00%     62.64% # Class of committed instruction
system.cpu1.commit.op_class_0::FloatMult            0      0.00%     62.64% # Class of committed instruction
system.cpu1.commit.op_class_0::FloatMultAcc            0      0.00%     62.64% # Class of committed instruction
system.cpu1.commit.op_class_0::FloatDiv             0      0.00%     62.64% # Class of committed instruction
system.cpu1.commit.op_class_0::FloatMisc            0      0.00%     62.64% # Class of committed instruction
system.cpu1.commit.op_class_0::FloatSqrt            0      0.00%     62.64% # Class of committed instruction
system.cpu1.commit.op_class_0::SimdAdd              0      0.00%     62.64% # Class of committed instruction
system.cpu1.commit.op_class_0::SimdAddAcc            0      0.00%     62.64% # Class of committed instruction
system.cpu1.commit.op_class_0::SimdAlu              0      0.00%     62.64% # Class of committed instruction
system.cpu1.commit.op_class_0::SimdCmp              0      0.00%     62.64% # Class of committed instruction
system.cpu1.commit.op_class_0::SimdCvt              0      0.00%     62.64% # Class of committed instruction
system.cpu1.commit.op_class_0::SimdMisc             0      0.00%     62.64% # Class of committed instruction
system.cpu1.commit.op_class_0::SimdMult             0      0.00%     62.64% # Class of committed instruction
system.cpu1.commit.op_class_0::SimdMultAcc            0      0.00%     62.64% # Class of committed instruction
system.cpu1.commit.op_class_0::SimdShift            0      0.00%     62.64% # Class of committed instruction
system.cpu1.commit.op_class_0::SimdShiftAcc            0      0.00%     62.64% # Class of committed instruction
system.cpu1.commit.op_class_0::SimdDiv              0      0.00%     62.64% # Class of committed instruction
system.cpu1.commit.op_class_0::SimdSqrt             0      0.00%     62.64% # Class of committed instruction
system.cpu1.commit.op_class_0::SimdFloatAdd            0      0.00%     62.64% # Class of committed instruction
system.cpu1.commit.op_class_0::SimdFloatAlu            0      0.00%     62.64% # Class of committed instruction
system.cpu1.commit.op_class_0::SimdFloatCmp            0      0.00%     62.64% # Class of committed instruction
system.cpu1.commit.op_class_0::SimdFloatCvt            0      0.00%     62.64% # Class of committed instruction
system.cpu1.commit.op_class_0::SimdFloatDiv            0      0.00%     62.64% # Class of committed instruction
system.cpu1.commit.op_class_0::SimdFloatMisc            0      0.00%     62.64% # Class of committed instruction
system.cpu1.commit.op_class_0::SimdFloatMult            0      0.00%     62.64% # Class of committed instruction
system.cpu1.commit.op_class_0::SimdFloatMultAcc            0      0.00%     62.64% # Class of committed instruction
system.cpu1.commit.op_class_0::SimdFloatSqrt            0      0.00%     62.64% # Class of committed instruction
system.cpu1.commit.op_class_0::SimdReduceAdd            0      0.00%     62.64% # Class of committed instruction
system.cpu1.commit.op_class_0::SimdReduceAlu            0      0.00%     62.64% # Class of committed instruction
system.cpu1.commit.op_class_0::SimdReduceCmp            0      0.00%     62.64% # Class of committed instruction
system.cpu1.commit.op_class_0::SimdFloatReduceAdd            0      0.00%     62.64% # Class of committed instruction
system.cpu1.commit.op_class_0::SimdFloatReduceCmp            0      0.00%     62.64% # Class of committed instruction
system.cpu1.commit.op_class_0::SimdAes              0      0.00%     62.64% # Class of committed instruction
system.cpu1.commit.op_class_0::SimdAesMix            0      0.00%     62.64% # Class of committed instruction
system.cpu1.commit.op_class_0::SimdSha1Hash            0      0.00%     62.64% # Class of committed instruction
system.cpu1.commit.op_class_0::SimdSha1Hash2            0      0.00%     62.64% # Class of committed instruction
system.cpu1.commit.op_class_0::SimdSha256Hash            0      0.00%     62.64% # Class of committed instruction
system.cpu1.commit.op_class_0::SimdSha256Hash2            0      0.00%     62.64% # Class of committed instruction
system.cpu1.commit.op_class_0::SimdShaSigma2            0      0.00%     62.64% # Class of committed instruction
system.cpu1.commit.op_class_0::SimdShaSigma3            0      0.00%     62.64% # Class of committed instruction
system.cpu1.commit.op_class_0::SimdPredAlu            0      0.00%     62.64% # Class of committed instruction
system.cpu1.commit.op_class_0::MemRead       17940947     31.52%     94.16% # Class of committed instruction
system.cpu1.commit.op_class_0::MemWrite       3321250      5.84%    100.00% # Class of committed instruction
system.cpu1.commit.op_class_0::FloatMemRead            0      0.00%    100.00% # Class of committed instruction
system.cpu1.commit.op_class_0::FloatMemWrite           12      0.00%    100.00% # Class of committed instruction
system.cpu1.commit.op_class_0::IprAccess            0      0.00%    100.00% # Class of committed instruction
system.cpu1.commit.op_class_0::InstPrefetch            0      0.00%    100.00% # Class of committed instruction
system.cpu1.commit.op_class_0::total         56912676                       # Class of committed instruction
system.cpu1.commit.refs                      21262209                       # Number of memory references committed
system.cpu1.commit.swp_count                        0                       # Number of s/w prefetches committed
system.cpu1.commit.vec_insts                        0                       # Number of committed Vector instructions.
system.cpu1.committedInsts                   55101302                       # Number of Instructions Simulated
system.cpu1.committedOps                     56912676                       # Number of Ops (including micro ops) Simulated
system.cpu1.cpi                              6.135997                       # CPI: Cycles Per Instruction
system.cpu1.cpi_total                        6.135997                       # CPI: Total CPI of All Threads
system.cpu1.decode.BlockedCycles            290855028                       # Number of cycles decode is blocked
system.cpu1.decode.BranchMispred               873979                       # Number of times decode detected a branch misprediction
system.cpu1.decode.BranchResolved             9003266                       # Number of times decode resolved a branch
system.cpu1.decode.DecodedInsts              88541828                       # Number of instructions handled by decode
system.cpu1.decode.IdleCycles                12636732                       # Number of cycles decode is idle
system.cpu1.decode.RunCycles                 28602566                       # Number of cycles decode is running
system.cpu1.decode.SquashCycles               1192834                       # Number of cycles decode is squashing
system.cpu1.decode.SquashedInsts              1238616                       # Number of squashed instructions handled by decode
system.cpu1.decode.UnblockCycles              4610495                       # Number of cycles decode is unblocking
system.cpu1.dtb.accesses                            0                       # DTB accesses
system.cpu1.dtb.hits                                0                       # DTB hits
system.cpu1.dtb.misses                              0                       # DTB misses
system.cpu1.dtb.read_accesses                       0                       # DTB read accesses
system.cpu1.dtb.read_hits                           0                       # DTB read hits
system.cpu1.dtb.read_misses                         0                       # DTB read misses
system.cpu1.dtb.write_accesses                      0                       # DTB write accesses
system.cpu1.dtb.write_hits                          0                       # DTB write hits
system.cpu1.dtb.write_misses                        0                       # DTB write misses
system.cpu1.fetch.Branches                   21025259                       # Number of branches that fetch encountered
system.cpu1.fetch.CacheLines                 13052649                       # Number of cache lines fetched
system.cpu1.fetch.Cycles                    321527969                       # Number of cycles fetch has run and was not squashing or blocked
system.cpu1.fetch.IcacheSquashes               128941                       # Number of outstanding Icache misses that were squashed
system.cpu1.fetch.IcacheWaitRetryStallCycles           22                       # Number of stall cycles due to full MSHR
system.cpu1.fetch.Insts                     102105317                       # Number of instructions fetch has processed
system.cpu1.fetch.MiscStallCycles                   2                       # Number of cycles fetch has spent waiting on interrupts, or bad addresses, or out of MSHRs
system.cpu1.fetch.SquashCycles                4121356                       # Number of cycles fetch has spent squashing
system.cpu1.fetch.branchRate                 0.062186                       # Number of branch fetches per cycle
system.cpu1.fetch.icacheStallCycles          14308984                       # Number of cycles fetch is stalled on an Icache miss
system.cpu1.fetch.predictedBranches          10322494                       # Number of branches that fetch has predicted taken
system.cpu1.fetch.rate                       0.301996                       # Number of inst fetches per cycle
system.cpu1.fetch.rateDist::samples         337897655                       # Number of instructions fetched each cycle (Total)
system.cpu1.fetch.rateDist::mean             0.313956                       # Number of instructions fetched each cycle (Total)
system.cpu1.fetch.rateDist::stdev            0.812054                       # Number of instructions fetched each cycle (Total)
system.cpu1.fetch.rateDist::underflows              0      0.00%      0.00% # Number of instructions fetched each cycle (Total)
system.cpu1.fetch.rateDist::0               278187596     82.33%     82.33% # Number of instructions fetched each cycle (Total)
system.cpu1.fetch.rateDist::1                31798030      9.41%     91.74% # Number of instructions fetched each cycle (Total)
system.cpu1.fetch.rateDist::2                16782542      4.97%     96.71% # Number of instructions fetched each cycle (Total)
system.cpu1.fetch.rateDist::3                 6181557      1.83%     98.54% # Number of instructions fetched each cycle (Total)
system.cpu1.fetch.rateDist::4                 3015917      0.89%     99.43% # Number of instructions fetched each cycle (Total)
system.cpu1.fetch.rateDist::5                 1485677      0.44%     99.87% # Number of instructions fetched each cycle (Total)
system.cpu1.fetch.rateDist::6                  442722      0.13%    100.00% # Number of instructions fetched each cycle (Total)
system.cpu1.fetch.rateDist::7                     114      0.00%    100.00% # Number of instructions fetched each cycle (Total)
system.cpu1.fetch.rateDist::8                    3500      0.00%    100.00% # Number of instructions fetched each cycle (Total)
system.cpu1.fetch.rateDist::overflows               0      0.00%    100.00% # Number of instructions fetched each cycle (Total)
system.cpu1.fetch.rateDist::min_value               0                       # Number of instructions fetched each cycle (Total)
system.cpu1.fetch.rateDist::max_value               8                       # Number of instructions fetched each cycle (Total)
system.cpu1.fetch.rateDist::total           337897655                       # Number of instructions fetched each cycle (Total)
system.cpu1.fp_regfile_reads                       12                       # number of floating regfile reads
system.cpu1.idleCycles                         203770                       # Total number of cycles that the CPU has spent unscheduled due to idling
system.cpu1.iew.branchMispredicts             1263034                       # Number of branch mispredicts detected at execute
system.cpu1.iew.exec_branches                14822763                       # Number of branches executed
system.cpu1.iew.exec_nop                            0                       # number of nop insts executed
system.cpu1.iew.exec_rate                    0.192806                       # Inst execution rate
system.cpu1.iew.exec_refs                    22755145                       # number of memory reference insts executed
system.cpu1.iew.exec_stores                   5226623                       # Number of stores executed
system.cpu1.iew.exec_swp                            0                       # number of swp insts executed
system.cpu1.iew.iewBlockCycles              247448696                       # Number of cycles IEW is blocking
system.cpu1.iew.iewDispLoadInsts             22746474                       # Number of dispatched load instructions
system.cpu1.iew.iewDispNonSpecInsts           2711911                       # Number of dispatched non-speculative instructions
system.cpu1.iew.iewDispSquashedInsts          1732197                       # Number of squashed instructions skipped by dispatch
system.cpu1.iew.iewDispStoreInsts             7107250                       # Number of dispatched store instructions
system.cpu1.iew.iewDispatchedInsts           80194993                       # Number of instructions dispatched to IQ
system.cpu1.iew.iewExecLoadInsts             17528522                       # Number of load instructions executed
system.cpu1.iew.iewExecSquashedInsts           907929                       # Number of squashed instructions skipped in execute
system.cpu1.iew.iewExecutedInsts             65188001                       # Number of executed instructions
system.cpu1.iew.iewIQFullEvents               1552686                       # Number of times the IQ has become full, causing a stall
system.cpu1.iew.iewIdleCycles                       0                       # Number of cycles IEW is idle
system.cpu1.iew.iewLSQFullEvents              1251129                       # Number of times the LSQ has become full, causing a stall
system.cpu1.iew.iewSquashCycles               1192834                       # Number of cycles IEW is squashing
system.cpu1.iew.iewUnblockCycles              4712639                       # Number of cycles IEW is unblocking
system.cpu1.iew.lsq.thread0.blockedLoads            0                       # Number of blocked loads due to partial load-store forwarding
system.cpu1.iew.lsq.thread0.cacheBlocked        44526                       # Number of times an access to memory failed due to the cache being blocked
system.cpu1.iew.lsq.thread0.forwLoads          295733                       # Number of loads that had data forwarded from stores
system.cpu1.iew.lsq.thread0.ignoredResponses         8633                       # Number of memory responses ignored because the instruction is squashed
system.cpu1.iew.lsq.thread0.invAddrLoads            0                       # Number of loads ignored due to an invalid address
system.cpu1.iew.lsq.thread0.invAddrSwpfs            0                       # Number of software prefetches ignored due to an invalid address
system.cpu1.iew.lsq.thread0.memOrderViolation          562                       # Number of memory ordering violations
system.cpu1.iew.lsq.thread0.rescheduledLoads         2606                       # Number of loads that were rescheduled
system.cpu1.iew.lsq.thread0.squashedLoads      6616726                       # Number of loads squashed
system.cpu1.iew.lsq.thread0.squashedStores      1974789                       # Number of stores squashed
system.cpu1.iew.memOrderViolationEvents           562                       # Number of memory order violations
system.cpu1.iew.predictedNotTakenIncorrect       205773                       # Number of branches that were predicted not taken incorrectly
system.cpu1.iew.predictedTakenIncorrect       1057261                       # Number of branches that were predicted taken incorrectly
system.cpu1.iew.wb_consumers                 37227761                       # num instructions consuming a value
system.cpu1.iew.wb_count                     64570224                       # cumulative count of insts written-back
system.cpu1.iew.wb_fanout                    0.845422                       # average fanout of values written-back
system.cpu1.iew.wb_producers                 31473167                       # num instructions producing a value
system.cpu1.iew.wb_rate                      0.190979                       # insts written-back per cycle
system.cpu1.iew.wb_sent                      64584008                       # cumulative count of insts sent to commit
system.cpu1.int_regfile_reads                81325609                       # number of integer regfile reads
system.cpu1.int_regfile_writes               43006660                       # number of integer regfile writes
system.cpu1.ipc                              0.162973                       # IPC: Instructions Per Cycle
system.cpu1.ipc_total                        0.162973                       # IPC: Total IPC of All Threads
system.cpu1.iq.FU_type_0::No_OpClass          3622622      5.48%      5.48% # Type of FU issued
system.cpu1.iq.FU_type_0::IntAlu             39569686     59.87%     65.35% # Type of FU issued
system.cpu1.iq.FU_type_0::IntMult                  46      0.00%     65.35% # Type of FU issued
system.cpu1.iq.FU_type_0::IntDiv                   86      0.00%     65.35% # Type of FU issued
system.cpu1.iq.FU_type_0::FloatAdd                  0      0.00%     65.35% # Type of FU issued
system.cpu1.iq.FU_type_0::FloatCmp                  0      0.00%     65.35% # Type of FU issued
system.cpu1.iq.FU_type_0::FloatCvt                  0      0.00%     65.35% # Type of FU issued
system.cpu1.iq.FU_type_0::FloatMult                 0      0.00%     65.35% # Type of FU issued
system.cpu1.iq.FU_type_0::FloatMultAcc              0      0.00%     65.35% # Type of FU issued
system.cpu1.iq.FU_type_0::FloatDiv                  0      0.00%     65.35% # Type of FU issued
system.cpu1.iq.FU_type_0::FloatMisc                 0      0.00%     65.35% # Type of FU issued
system.cpu1.iq.FU_type_0::FloatSqrt                 0      0.00%     65.35% # Type of FU issued
system.cpu1.iq.FU_type_0::SimdAdd                   0      0.00%     65.35% # Type of FU issued
system.cpu1.iq.FU_type_0::SimdAddAcc                0      0.00%     65.35% # Type of FU issued
system.cpu1.iq.FU_type_0::SimdAlu                   0      0.00%     65.35% # Type of FU issued
system.cpu1.iq.FU_type_0::SimdCmp                   0      0.00%     65.35% # Type of FU issued
system.cpu1.iq.FU_type_0::SimdCvt                   0      0.00%     65.35% # Type of FU issued
system.cpu1.iq.FU_type_0::SimdMisc                  0      0.00%     65.35% # Type of FU issued
system.cpu1.iq.FU_type_0::SimdMult                  0      0.00%     65.35% # Type of FU issued
system.cpu1.iq.FU_type_0::SimdMultAcc               0      0.00%     65.35% # Type of FU issued
system.cpu1.iq.FU_type_0::SimdShift                 0      0.00%     65.35% # Type of FU issued
system.cpu1.iq.FU_type_0::SimdShiftAcc              0      0.00%     65.35% # Type of FU issued
system.cpu1.iq.FU_type_0::SimdDiv                   0      0.00%     65.35% # Type of FU issued
system.cpu1.iq.FU_type_0::SimdSqrt                  0      0.00%     65.35% # Type of FU issued
system.cpu1.iq.FU_type_0::SimdFloatAdd              0      0.00%     65.35% # Type of FU issued
system.cpu1.iq.FU_type_0::SimdFloatAlu              0      0.00%     65.35% # Type of FU issued
system.cpu1.iq.FU_type_0::SimdFloatCmp              0      0.00%     65.35% # Type of FU issued
system.cpu1.iq.FU_type_0::SimdFloatCvt              0      0.00%     65.35% # Type of FU issued
system.cpu1.iq.FU_type_0::SimdFloatDiv              0      0.00%     65.35% # Type of FU issued
system.cpu1.iq.FU_type_0::SimdFloatMisc             0      0.00%     65.35% # Type of FU issued
system.cpu1.iq.FU_type_0::SimdFloatMult             0      0.00%     65.35% # Type of FU issued
system.cpu1.iq.FU_type_0::SimdFloatMultAcc            0      0.00%     65.35% # Type of FU issued
system.cpu1.iq.FU_type_0::SimdFloatSqrt             0      0.00%     65.35% # Type of FU issued
system.cpu1.iq.FU_type_0::SimdReduceAdd             0      0.00%     65.35% # Type of FU issued
system.cpu1.iq.FU_type_0::SimdReduceAlu             0      0.00%     65.35% # Type of FU issued
system.cpu1.iq.FU_type_0::SimdReduceCmp             0      0.00%     65.35% # Type of FU issued
system.cpu1.iq.FU_type_0::SimdFloatReduceAdd            0      0.00%     65.35% # Type of FU issued
system.cpu1.iq.FU_type_0::SimdFloatReduceCmp            0      0.00%     65.35% # Type of FU issued
system.cpu1.iq.FU_type_0::SimdAes                   0      0.00%     65.35% # Type of FU issued
system.cpu1.iq.FU_type_0::SimdAesMix                0      0.00%     65.35% # Type of FU issued
system.cpu1.iq.FU_type_0::SimdSha1Hash              0      0.00%     65.35% # Type of FU issued
system.cpu1.iq.FU_type_0::SimdSha1Hash2             0      0.00%     65.35% # Type of FU issued
system.cpu1.iq.FU_type_0::SimdSha256Hash            0      0.00%     65.35% # Type of FU issued
system.cpu1.iq.FU_type_0::SimdSha256Hash2            0      0.00%     65.35% # Type of FU issued
system.cpu1.iq.FU_type_0::SimdShaSigma2             0      0.00%     65.35% # Type of FU issued
system.cpu1.iq.FU_type_0::SimdShaSigma3             0      0.00%     65.35% # Type of FU issued
system.cpu1.iq.FU_type_0::SimdPredAlu               0      0.00%     65.35% # Type of FU issued
system.cpu1.iq.FU_type_0::MemRead            19472819     29.46%     94.81% # Type of FU issued
system.cpu1.iq.FU_type_0::MemWrite            3430659      5.19%    100.00% # Type of FU issued
system.cpu1.iq.FU_type_0::FloatMemRead              0      0.00%    100.00% # Type of FU issued
system.cpu1.iq.FU_type_0::FloatMemWrite            12      0.00%    100.00% # Type of FU issued
system.cpu1.iq.FU_type_0::IprAccess                 0      0.00%    100.00% # Type of FU issued
system.cpu1.iq.FU_type_0::InstPrefetch              0      0.00%    100.00% # Type of FU issued
system.cpu1.iq.FU_type_0::total              66095930                       # Type of FU issued
system.cpu1.iq.fp_alu_accesses                     14                       # Number of floating point alu accesses
system.cpu1.iq.fp_inst_queue_reads                 26                       # Number of floating instruction queue reads
system.cpu1.iq.fp_inst_queue_wakeup_accesses           12                       # Number of floating instruction queue wakeup accesses
system.cpu1.iq.fp_inst_queue_writes                12                       # Number of floating instruction queue writes
system.cpu1.iq.fu_busy_cnt                    2008370                       # FU busy when requested
system.cpu1.iq.fu_busy_rate                  0.030386                       # FU busy rate (busy events/executed inst)
system.cpu1.iq.fu_full::No_OpClass                  0      0.00%      0.00% # attempts to use FU when none available
system.cpu1.iq.fu_full::IntAlu                 357133     17.78%     17.78% # attempts to use FU when none available
system.cpu1.iq.fu_full::IntMult                     0      0.00%     17.78% # attempts to use FU when none available
system.cpu1.iq.fu_full::IntDiv                      0      0.00%     17.78% # attempts to use FU when none available
system.cpu1.iq.fu_full::FloatAdd                    0      0.00%     17.78% # attempts to use FU when none available
system.cpu1.iq.fu_full::FloatCmp                    0      0.00%     17.78% # attempts to use FU when none available
system.cpu1.iq.fu_full::FloatCvt                    0      0.00%     17.78% # attempts to use FU when none available
system.cpu1.iq.fu_full::FloatMult                   0      0.00%     17.78% # attempts to use FU when none available
system.cpu1.iq.fu_full::FloatMultAcc                0      0.00%     17.78% # attempts to use FU when none available
system.cpu1.iq.fu_full::FloatDiv                    0      0.00%     17.78% # attempts to use FU when none available
system.cpu1.iq.fu_full::FloatMisc                   0      0.00%     17.78% # attempts to use FU when none available
system.cpu1.iq.fu_full::FloatSqrt                   0      0.00%     17.78% # attempts to use FU when none available
system.cpu1.iq.fu_full::SimdAdd                     0      0.00%     17.78% # attempts to use FU when none available
system.cpu1.iq.fu_full::SimdAddAcc                  0      0.00%     17.78% # attempts to use FU when none available
system.cpu1.iq.fu_full::SimdAlu                     0      0.00%     17.78% # attempts to use FU when none available
system.cpu1.iq.fu_full::SimdCmp                     0      0.00%     17.78% # attempts to use FU when none available
system.cpu1.iq.fu_full::SimdCvt                     0      0.00%     17.78% # attempts to use FU when none available
system.cpu1.iq.fu_full::SimdMisc                    0      0.00%     17.78% # attempts to use FU when none available
system.cpu1.iq.fu_full::SimdMult                    0      0.00%     17.78% # attempts to use FU when none available
system.cpu1.iq.fu_full::SimdMultAcc                 0      0.00%     17.78% # attempts to use FU when none available
system.cpu1.iq.fu_full::SimdShift                   0      0.00%     17.78% # attempts to use FU when none available
system.cpu1.iq.fu_full::SimdShiftAcc                0      0.00%     17.78% # attempts to use FU when none available
system.cpu1.iq.fu_full::SimdDiv                     0      0.00%     17.78% # attempts to use FU when none available
system.cpu1.iq.fu_full::SimdSqrt                    0      0.00%     17.78% # attempts to use FU when none available
system.cpu1.iq.fu_full::SimdFloatAdd                0      0.00%     17.78% # attempts to use FU when none available
system.cpu1.iq.fu_full::SimdFloatAlu                0      0.00%     17.78% # attempts to use FU when none available
system.cpu1.iq.fu_full::SimdFloatCmp                0      0.00%     17.78% # attempts to use FU when none available
system.cpu1.iq.fu_full::SimdFloatCvt                0      0.00%     17.78% # attempts to use FU when none available
system.cpu1.iq.fu_full::SimdFloatDiv                0      0.00%     17.78% # attempts to use FU when none available
system.cpu1.iq.fu_full::SimdFloatMisc               0      0.00%     17.78% # attempts to use FU when none available
system.cpu1.iq.fu_full::SimdFloatMult               0      0.00%     17.78% # attempts to use FU when none available
system.cpu1.iq.fu_full::SimdFloatMultAcc            0      0.00%     17.78% # attempts to use FU when none available
system.cpu1.iq.fu_full::SimdFloatSqrt               0      0.00%     17.78% # attempts to use FU when none available
system.cpu1.iq.fu_full::SimdReduceAdd               0      0.00%     17.78% # attempts to use FU when none available
system.cpu1.iq.fu_full::SimdReduceAlu               0      0.00%     17.78% # attempts to use FU when none available
system.cpu1.iq.fu_full::SimdReduceCmp               0      0.00%     17.78% # attempts to use FU when none available
system.cpu1.iq.fu_full::SimdFloatReduceAdd            0      0.00%     17.78% # attempts to use FU when none available
system.cpu1.iq.fu_full::SimdFloatReduceCmp            0      0.00%     17.78% # attempts to use FU when none available
system.cpu1.iq.fu_full::SimdAes                     0      0.00%     17.78% # attempts to use FU when none available
system.cpu1.iq.fu_full::SimdAesMix                  0      0.00%     17.78% # attempts to use FU when none available
system.cpu1.iq.fu_full::SimdSha1Hash                0      0.00%     17.78% # attempts to use FU when none available
system.cpu1.iq.fu_full::SimdSha1Hash2               0      0.00%     17.78% # attempts to use FU when none available
system.cpu1.iq.fu_full::SimdSha256Hash              0      0.00%     17.78% # attempts to use FU when none available
system.cpu1.iq.fu_full::SimdSha256Hash2             0      0.00%     17.78% # attempts to use FU when none available
system.cpu1.iq.fu_full::SimdShaSigma2               0      0.00%     17.78% # attempts to use FU when none available
system.cpu1.iq.fu_full::SimdShaSigma3               0      0.00%     17.78% # attempts to use FU when none available
system.cpu1.iq.fu_full::SimdPredAlu                 0      0.00%     17.78% # attempts to use FU when none available
system.cpu1.iq.fu_full::MemRead               1454725     72.43%     90.22% # attempts to use FU when none available
[...]
system.cpu1.dcache.ReadReq_accesses::.cpu1.data     19535426                       # number of ReadReq accesses(hits+misses)
system.cpu1.dcache.ReadReq_accesses::total     19535426                       # number of ReadReq accesses(hits+misses)
system.cpu1.dcache.ReadReq_miss_rate::.cpu1.data     0.241673                       # miss rate for ReadReq accesses
system.cpu1.dcache.ReadReq_miss_rate::total     0.241673                       # miss rate for ReadReq accesses
system.cpu1.dcache.ReadReq_avg_miss_latency::.cpu1.data 70317.919943                       # average ReadReq miss latency
system.cpu1.dcache.ReadReq_avg_miss_latency::total 70317.919943                       # average ReadReq miss latency
system.cpu1.dcache.ReadReq_mshr_hits::.cpu1.data      2713562                       # number of ReadReq MSHR hits
system.cpu1.dcache.ReadReq_mshr_hits::total      2713562                       # number of ReadReq MSHR hits
system.cpu1.dcache.ReadReq_mshr_misses::.cpu1.data      2007625                       # number of ReadReq MSHR misses
system.cpu1.dcache.ReadReq_mshr_misses::total      2007625                       # number of ReadReq MSHR misses
system.cpu1.dcache.ReadReq_mshr_miss_latency::.cpu1.data 177946542500                       # number of ReadReq MSHR miss cycles
system.cpu1.dcache.ReadReq_mshr_miss_latency::total 177946542500                       # number of ReadReq MSHR miss cycles
system.cpu1.dcache.ReadReq_mshr_miss_rate::.cpu1.data     0.102768                       # mshr miss rate for ReadReq accesses
system.cpu1.dcache.ReadReq_mshr_miss_rate::total     0.102768                       # mshr miss rate for ReadReq accesses
system.cpu1.dcache.ReadReq_avg_mshr_miss_latency::.cpu1.data 88635.348982                       # average ReadReq mshr miss latency
system.cpu1.dcache.ReadReq_avg_mshr_miss_latency::total 88635.348982                       # average ReadReq mshr miss latency
system.cpu1.dcache.WriteReq_hits::.cpu1.data       778018                       # number of WriteReq hits
system.cpu1.dcache.WriteReq_hits::total        778018                       # number of WriteReq hits
system.cpu1.dcache.WriteReq_misses::.cpu1.data       604051                       # number of WriteReq misses
system.cpu1.dcache.WriteReq_misses::total       604051                       # number of WriteReq misses
system.cpu1.dcache.WriteReq_miss_latency::.cpu1.data  48013064275                       # number of WriteReq miss cycles
system.cpu1.dcache.WriteReq_miss_latency::total  48013064275                       # number of WriteReq miss cycles
system.cpu1.dcache.WriteReq_accesses::.cpu1.data      1382069                       # number of WriteReq accesses(hits+misses)
system.cpu1.dcache.WriteReq_accesses::total      1382069                       # number of WriteReq accesses(hits+misses)
system.cpu1.dcache.WriteReq_miss_rate::.cpu1.data     0.437063                       # miss rate for WriteReq accesses
system.cpu1.dcache.WriteReq_miss_rate::total     0.437063                       # miss rate for WriteReq accesses
system.cpu1.dcache.WriteReq_avg_miss_latency::.cpu1.data 79485.116778                       # average WriteReq miss latency
system.cpu1.dcache.WriteReq_avg_miss_latency::total 79485.116778                       # average WriteReq miss latency
system.cpu1.dcache.WriteReq_mshr_hits::.cpu1.data       561810                       # number of WriteReq MSHR hits
system.cpu1.dcache.WriteReq_mshr_hits::total       561810                       # number of WriteReq MSHR hits
system.cpu1.dcache.WriteReq_mshr_misses::.cpu1.data        42241                       # number of WriteReq MSHR misses
system.cpu1.dcache.WriteReq_mshr_misses::total        42241                       # number of WriteReq MSHR misses
system.cpu1.dcache.WriteReq_mshr_miss_latency::.cpu1.data   4202896320                       # number of WriteReq MSHR miss cycles
system.cpu1.dcache.WriteReq_mshr_miss_latency::total   4202896320                       # number of WriteReq MSHR miss cycles
system.cpu1.dcache.WriteReq_mshr_miss_rate::.cpu1.data     0.030564                       # mshr miss rate for WriteReq accesses
system.cpu1.dcache.WriteReq_mshr_miss_rate::total     0.030564                       # mshr miss rate for WriteReq accesses
system.cpu1.dcache.WriteReq_avg_mshr_miss_latency::.cpu1.data 99498.030823                       # average WriteReq mshr miss latency
system.cpu1.dcache.WriteReq_avg_mshr_miss_latency::total 99498.030823                       # average WriteReq mshr miss latency
system.cpu1.dcache.LoadLockedReq_hits::.cpu1.data          679                       # number of LoadLockedReq hits
system.cpu1.dcache.LoadLockedReq_hits::total          679                       # number of LoadLockedReq hits
system.cpu1.dcache.LoadLockedReq_misses::.cpu1.data          158                       # number of LoadLockedReq misses
system.cpu1.dcache.LoadLockedReq_misses::total          158                       # number of LoadLockedReq misses
system.cpu1.dcache.LoadLockedReq_miss_latency::.cpu1.data     12563500                       # number of LoadLockedReq miss cycles
system.cpu1.dcache.LoadLockedReq_miss_latency::total     12563500                       # number of LoadLockedReq miss cycles
system.cpu1.dcache.LoadLockedReq_accesses::.cpu1.data          837                       # number of LoadLockedReq accesses(hits+misses)
system.cpu1.dcache.LoadLockedReq_accesses::total          837                       # number of LoadLockedReq accesses(hits+misses)
system.cpu1.dcache.LoadLockedReq_miss_rate::.cpu1.data     0.188769                       # miss rate for LoadLockedReq accesses
system.cpu1.dcache.LoadLockedReq_miss_rate::total     0.188769                       # miss rate for LoadLockedReq accesses
system.cpu1.dcache.LoadLockedReq_avg_miss_latency::.cpu1.data 79515.822785                       # average LoadLockedReq miss latency
system.cpu1.dcache.LoadLockedReq_avg_miss_latency::total 79515.822785                       # average LoadLockedReq miss latency
system.cpu1.dcache.LoadLockedReq_mshr_hits::.cpu1.data           70                       # number of LoadLockedReq MSHR hits
system.cpu1.dcache.LoadLockedReq_mshr_hits::total           70                       # number of LoadLockedReq MSHR hits
system.cpu1.dcache.LoadLockedReq_mshr_misses::.cpu1.data           88                       # number of LoadLockedReq MSHR misses
system.cpu1.dcache.LoadLockedReq_mshr_misses::total           88                       # number of LoadLockedReq MSHR misses
system.cpu1.dcache.LoadLockedReq_mshr_miss_latency::.cpu1.data      6967000                       # number of LoadLockedReq MSHR miss cycles
system.cpu1.dcache.LoadLockedReq_mshr_miss_latency::total      6967000                       # number of LoadLockedReq MSHR miss cycles
system.cpu1.dcache.LoadLockedReq_mshr_miss_rate::.cpu1.data     0.105137                       # mshr miss rate for LoadLockedReq accesses
system.cpu1.dcache.LoadLockedReq_mshr_miss_rate::total     0.105137                       # mshr miss rate for LoadLockedReq accesses
system.cpu1.dcache.LoadLockedReq_avg_mshr_miss_latency::.cpu1.data 79170.454545                       # average LoadLockedReq mshr miss latency
system.cpu1.dcache.LoadLockedReq_avg_mshr_miss_latency::total 79170.454545                       # average LoadLockedReq mshr miss latency
system.cpu1.dcache.StoreCondReq_hits::.cpu1.data          606                       # number of StoreCondReq hits
system.cpu1.dcache.StoreCondReq_hits::total          606                       # number of StoreCondReq hits
system.cpu1.dcache.StoreCondReq_misses::.cpu1.data          189                       # number of StoreCondReq misses
system.cpu1.dcache.StoreCondReq_misses::total          189                       # number of StoreCondReq misses
system.cpu1.dcache.StoreCondReq_miss_latency::.cpu1.data       930000                       # number of StoreCondReq miss cycles
system.cpu1.dcache.StoreCondReq_miss_latency::total       930000                       # number of StoreCondReq miss cycles
system.cpu1.dcache.StoreCondReq_accesses::.cpu1.data          795                       # number of StoreCondReq accesses(hits+misses)
system.cpu1.dcache.StoreCondReq_accesses::total          795                       # number of StoreCondReq accesses(hits+misses)
system.cpu1.dcache.StoreCondReq_miss_rate::.cpu1.data     0.237736                       # miss rate for StoreCondReq accesses
system.cpu1.dcache.StoreCondReq_miss_rate::total     0.237736                       # miss rate for StoreCondReq accesses
system.cpu1.dcache.StoreCondReq_avg_miss_latency::.cpu1.data  4920.634921                       # average StoreCondReq miss latency
system.cpu1.dcache.StoreCondReq_avg_miss_latency::total  4920.634921                       # average StoreCondReq miss latency
system.cpu1.dcache.StoreCondReq_mshr_misses::.cpu1.data          189                       # number of StoreCondReq MSHR misses
system.cpu1.dcache.StoreCondReq_mshr_misses::total          189                       # number of StoreCondReq MSHR misses
system.cpu1.dcache.StoreCondReq_mshr_miss_latency::.cpu1.data       741000                       # number of StoreCondReq MSHR miss cycles
system.cpu1.dcache.StoreCondReq_mshr_miss_latency::total       741000                       # number of StoreCondReq MSHR miss cycles
system.cpu1.dcache.StoreCondReq_mshr_miss_rate::.cpu1.data     0.237736                       # mshr miss rate for StoreCondReq accesses
system.cpu1.dcache.StoreCondReq_mshr_miss_rate::total     0.237736                       # mshr miss rate for StoreCondReq accesses
system.cpu1.dcache.StoreCondReq_avg_mshr_miss_latency::.cpu1.data  3920.634921                       # average StoreCondReq mshr miss latency
system.cpu1.dcache.StoreCondReq_avg_mshr_miss_latency::total  3920.634921                       # average StoreCondReq mshr miss latency
system.cpu1.dcache.SwapReq_hits::.cpu1.data          295                       # number of SwapReq hits
system.cpu1.dcache.SwapReq_hits::total            295                       # number of SwapReq hits
system.cpu1.dcache.SwapReq_misses::.cpu1.data          172                       # number of SwapReq misses
system.cpu1.dcache.SwapReq_misses::total          172                       # number of SwapReq misses
system.cpu1.dcache.SwapReq_miss_latency::.cpu1.data       980000                       # number of SwapReq miss cycles
system.cpu1.dcache.SwapReq_miss_latency::total       980000                       # number of SwapReq miss cycles
system.cpu1.dcache.SwapReq_accesses::.cpu1.data          467                       # number of SwapReq accesses(hits+misses)
system.cpu1.dcache.SwapReq_accesses::total          467                       # number of SwapReq accesses(hits+misses)
system.cpu1.dcache.SwapReq_miss_rate::.cpu1.data     0.368308                       # miss rate for SwapReq accesses
system.cpu1.dcache.SwapReq_miss_rate::total     0.368308                       # miss rate for SwapReq accesses
system.cpu1.dcache.SwapReq_avg_miss_latency::.cpu1.data  5697.674419                       # average SwapReq miss latency
system.cpu1.dcache.SwapReq_avg_miss_latency::total  5697.674419                       # average SwapReq miss latency
system.cpu1.dcache.SwapReq_mshr_misses::.cpu1.data          172                       # number of SwapReq MSHR misses
system.cpu1.dcache.SwapReq_mshr_misses::total          172                       # number of SwapReq MSHR misses
system.cpu1.dcache.SwapReq_mshr_miss_latency::.cpu1.data       808000                       # number of SwapReq MSHR miss cycles
system.cpu1.dcache.SwapReq_mshr_miss_latency::total       808000                       # number of SwapReq MSHR miss cycles
system.cpu1.dcache.SwapReq_mshr_miss_rate::.cpu1.data     0.368308                       # mshr miss rate for SwapReq accesses
system.cpu1.dcache.SwapReq_mshr_miss_rate::total     0.368308                       # mshr miss rate for SwapReq accesses
system.cpu1.dcache.SwapReq_avg_mshr_miss_latency::.cpu1.data  4697.674419                       # average SwapReq mshr miss latency
system.cpu1.dcache.SwapReq_avg_mshr_miss_latency::total  4697.674419                       # average SwapReq mshr miss latency
system.cpu1.dcache.tags.pwrStateResidencyTicks::UNDEFINED 551765315000                       # Cumulative time (in ticks) in various power states
system.cpu1.dcache.tags.tagsinuse           31.991320                       # Cycle average of tags in use
system.cpu1.dcache.tags.total_refs           17648347                       # Total number of references to valid blocks.
system.cpu1.dcache.tags.sampled_refs          2049767                       # Sample count of references to valid blocks.
system.cpu1.dcache.tags.avg_refs             8.609928                       # Average number of references to valid blocks.
system.cpu1.dcache.tags.warmup_cycle                0                       # Cycle when the warmup percentage was hit.
system.cpu1.dcache.tags.occ_blocks::.cpu1.data    31.991320                       # Average occupied blocks per requestor
system.cpu1.dcache.tags.occ_percent::.cpu1.data     0.999729                       # Average percentage of cache occupancy
system.cpu1.dcache.tags.occ_percent::total     0.999729                       # Average percentage of cache occupancy
system.cpu1.dcache.tags.occ_task_id_blocks::1024           29                       # Occupied blocks per task id
system.cpu1.dcache.tags.age_task_id_blocks_1024::1           29                       # Occupied blocks per task id
system.cpu1.dcache.tags.occ_task_id_percent::1024     0.906250                       # Percentage of cache occupancy per task id
system.cpu1.dcache.tags.tag_accesses         43888928                       # Number of tag accesses
system.cpu1.dcache.tags.data_accesses        43888928                       # Number of data accesses
system.cpu_clk_domain.clock                       500                       # Clock period in ticks
system.tol2bus.pwrStateResidencyTicks::UNDEFINED 551765315000                       # Cumulative time (in ticks) in various power states
system.tol2bus.trans_dist::ReadResp          25264546                       # Transaction distribution
system.tol2bus.trans_dist::WritebackDirty       895423                       # Transaction distribution
system.tol2bus.trans_dist::WritebackClean     24866212                       # Transaction distribution
system.tol2bus.trans_dist::CleanEvict        35207597                       # Transaction distribution
system.tol2bus.trans_dist::UpgradeReq            1748                       # Transaction distribution
system.tol2bus.trans_dist::SCUpgradeReq           408                       # Transaction distribution
system.tol2bus.trans_dist::UpgradeResp           2156                       # Transaction distribution
system.tol2bus.trans_dist::ReadExReq            85366                       # Transaction distribution
system.tol2bus.trans_dist::ReadExResp           85366                       # Transaction distribution
system.tol2bus.trans_dist::ReadCleanReq         17801                       # Transaction distribution
system.tol2bus.trans_dist::ReadSharedReq     25246746                       # Transaction distribution
system.tol2bus.pkt_count_system.cpu0.icache.mem_side::system.l2.cpu_side        45682                       # Packet count per connected master and slave (bytes)
system.tol2bus.pkt_count_system.cpu0.dcache.mem_side::system.l2.cpu_side     69847374                       # Packet count per connected master and slave (bytes)
system.tol2bus.pkt_count_system.cpu1.icache.mem_side::system.l2.cpu_side         7719                       # Packet count per connected master and slave (bytes)
system.tol2bus.pkt_count_system.cpu1.dcache.mem_side::system.l2.cpu_side      6146510                       # Packet count per connected master and slave (bytes)
system.tol2bus.pkt_count::total              76047285                       # Packet count per connected master and slave (bytes)
system.tol2bus.pkt_size_system.cpu0.icache.mem_side::system.l2.cpu_side      1949056                       # Cumulative packet size per connected master and slave (bytes)
system.tol2bus.pkt_size_system.cpu0.dcache.mem_side::system.l2.cpu_side   2980013824                       # Cumulative packet size per connected master and slave (bytes)
system.tol2bus.pkt_size_system.cpu1.icache.mem_side::system.l2.cpu_side       329344                       # Cumulative packet size per connected master and slave (bytes)
system.tol2bus.pkt_size_system.cpu1.dcache.mem_side::system.l2.cpu_side    262146112                       # Cumulative packet size per connected master and slave (bytes)
system.tol2bus.pkt_size::total             3244438336                       # Cumulative packet size per connected master and slave (bytes)
system.tol2bus.snoops                        35626084                       # Total snoops (count)
system.tol2bus.snoopTraffic                  26700672                       # Total snoop traffic (bytes)
system.tol2bus.snoop_fanout::samples         60973769                       # Request fanout histogram
system.tol2bus.snoop_fanout::mean            0.211918                       # Request fanout histogram
system.tol2bus.snoop_fanout::stdev           0.416215                       # Request fanout histogram
system.tol2bus.snoop_fanout::underflows             0      0.00%      0.00% # Request fanout histogram
system.tol2bus.snoop_fanout::0               48242129     79.12%     79.12% # Request fanout histogram
system.tol2bus.snoop_fanout::1               12541822     20.57%     99.69% # Request fanout histogram
system.tol2bus.snoop_fanout::2                 189818      0.31%    100.00% # Request fanout histogram
system.tol2bus.snoop_fanout::3                      0      0.00%    100.00% # Request fanout histogram
system.tol2bus.snoop_fanout::4                      0      0.00%    100.00% # Request fanout histogram
system.tol2bus.snoop_fanout::5                      0      0.00%    100.00% # Request fanout histogram
system.tol2bus.snoop_fanout::6                      0      0.00%    100.00% # Request fanout histogram
system.tol2bus.snoop_fanout::7                      0      0.00%    100.00% # Request fanout histogram
system.tol2bus.snoop_fanout::8                      0      0.00%    100.00% # Request fanout histogram
system.tol2bus.snoop_fanout::overflows              0      0.00%    100.00% # Request fanout histogram
system.tol2bus.snoop_fanout::min_value              0                       # Request fanout histogram
system.tol2bus.snoop_fanout::max_value              2                       # Request fanout histogram
system.tol2bus.snoop_fanout::total           60973769                       # Request fanout histogram
system.tol2bus.reqLayer0.occupancy        50697336492                       # Layer occupancy (ticks)
system.tol2bus.reqLayer0.utilization              9.2                       # Layer utilization (%)
system.tol2bus.respLayer1.occupancy       34927545583                       # Layer occupancy (ticks)
system.tol2bus.respLayer1.utilization             6.3                       # Layer utilization (%)
system.tol2bus.respLayer0.occupancy          22865450                       # Layer occupancy (ticks)
system.tol2bus.respLayer0.utilization             0.0                       # Layer utilization (%)
system.tol2bus.respLayer3.occupancy        3076768766                       # Layer occupancy (ticks)
system.tol2bus.respLayer3.utilization             0.6                       # Layer utilization (%)
system.tol2bus.respLayer2.occupancy           3878961                       # Layer occupancy (ticks)
system.tol2bus.respLayer2.utilization             0.0                       # Layer utilization (%)

---------- End Simulation Statistics   ----------
