
---------- Begin Simulation Statistics ----------
final_tick                                50461768000                       # Number of ticks from beginning of simulation (restored from checkpoints and never reset)
host_inst_rate                                  82009                       # Simulator instruction rate (inst/s)
host_mem_usage                                 738304                       # Number of bytes of host memory used
host_op_rate                                    82350                       # Simulator op (including micro ops) rate (op/s)
host_seconds                                   771.79                       # Real time elapsed on the host
host_tick_rate                               65382787                       # Simulator tick rate (ticks/s)
sim_freq                                 1000000000000                       # Frequency of simulated ticks
sim_insts                                    63294007                       # Number of instructions simulated
sim_ops                                      63556993                       # Number of ops (including micro ops) simulated
sim_seconds                                  0.050462                       # Number of seconds simulated
sim_ticks                                 50461768000                       # Number of ticks simulated
system.cpu0.branchPred.BTBCorrect                   0                       # Number of correct BTB predictions (this stat may not work properly.
system.cpu0.branchPred.BTBHitPct            84.856160                       # BTB Hit Percentage
system.cpu0.branchPred.BTBHits               12354485                       # Number of BTB hits
system.cpu0.branchPred.BTBLookups            14559326                       # Number of BTB lookups
system.cpu0.branchPred.RASInCorrect                 0                       # Number of incorrect RAS predictions.
system.cpu0.branchPred.condIncorrect          2832543                       # Number of conditional branches incorrect
system.cpu0.branchPred.condPredicted         13639352                       # Number of conditional branches predicted
system.cpu0.branchPred.indirectHits            994799                       # Number of indirect target hits.
system.cpu0.branchPred.indirectLookups        1001254                       # Number of indirect predictor lookups.
system.cpu0.branchPred.indirectMisses            6455                       # Number of indirect misses.
system.cpu0.branchPred.lookups               16779529                       # Number of BP lookups
system.cpu0.branchPred.usedRAS                      0                       # Number of times the RAS was used to get a target.
system.cpu0.branchPredindirectMispredicted         4021                       # Number of mispredicted indirect branches.
system.cpu0.commit.amos                         65826                       # Number of atomic instructions committed
system.cpu0.commit.branchMispredicts          1530772                       # The number of times a branch was mispredicted
system.cpu0.commit.branches                   8106523                       # Number of branches committed
system.cpu0.commit.bw_lim_events               265799                       # number cycles where commit BW limit reached
system.cpu0.commit.commitNonSpecStalls         197950                       # The number of times commit has been forced to stall to communicate backwards
system.cpu0.commit.commitSquashedInsts       27823767                       # The number of squashed insts skipped by commit
system.cpu0.commit.committedInsts            52854406                       # Number of instructions committed
system.cpu0.commit.committedOps              52920203                       # Number of ops (including micro ops) committed
system.cpu0.commit.committed_per_cycle::samples     94744315                       # Number of insts commited each cycle
system.cpu0.commit.committed_per_cycle::mean     0.558558                       # Number of insts commited each cycle
system.cpu0.commit.committed_per_cycle::stdev     1.040747                       # Number of insts commited each cycle
system.cpu0.commit.committed_per_cycle::underflows            0      0.00%      0.00% # Number of insts commited each cycle
system.cpu0.commit.committed_per_cycle::0     64843089     68.44%     68.44% # Number of insts commited each cycle
system.cpu0.commit.committed_per_cycle::1     15719002     16.59%     85.03% # Number of insts commited each cycle
system.cpu0.commit.committed_per_cycle::2      8966271      9.46%     94.49% # Number of insts commited each cycle
system.cpu0.commit.committed_per_cycle::3      3679902      3.88%     98.38% # Number of insts commited each cycle
system.cpu0.commit.committed_per_cycle::4       594787      0.63%     99.01% # Number of insts commited each cycle
system.cpu0.commit.committed_per_cycle::5       457956      0.48%     99.49% # Number of insts commited each cycle
system.cpu0.commit.committed_per_cycle::6        88930      0.09%     99.58% # Number of insts commited each cycle
system.cpu0.commit.committed_per_cycle::7       128579      0.14%     99.72% # Number of insts commited each cycle
system.cpu0.commit.committed_per_cycle::8       265799      0.28%    100.00% # Number of insts commited each cycle
system.cpu0.commit.committed_per_cycle::overflows            0      0.00%    100.00% # Number of insts commited each cycle
system.cpu0.commit.committed_per_cycle::min_value            0                       # Number of insts commited each cycle
system.cpu0.commit.committed_per_cycle::max_value            8                       # Number of insts commited each cycle
system.cpu0.commit.committed_per_cycle::total     94744315                       # Number of insts commited each cycle
system.cpu0.commit.fp_insts                   5636177                       # Number of committed floating point instructions.
system.cpu0.commit.function_calls             1603988                       # Number of function calls committed.
system.cpu0.commit.int_insts                 50309316                       # Number of committed integer instructions.
system.cpu0.commit.loads                      5140314                       # Number of loads committed
system.cpu0.commit.membars                     131666                       # Number of memory barriers committed
system.cpu0.commit.op_class_0::No_OpClass       131675      0.25%      0.25% # Class of committed instruction
system.cpu0.commit.op_class_0::IntAlu        39930210     75.45%     75.70% # Class of committed instruction
system.cpu0.commit.op_class_0::IntMult           6136      0.01%     75.71% # Class of committed instruction
system.cpu0.commit.op_class_0::IntDiv            8240      0.02%     75.73% # Class of committed instruction
system.cpu0.commit.op_class_0::FloatAdd       1572864      2.97%     78.70% # Class of committed instruction
system.cpu0.commit.op_class_0::FloatCmp       2359302      4.46%     83.16% # Class of committed instruction
system.cpu0.commit.op_class_0::FloatCvt        851984      1.61%     84.77% # Class of committed instruction
system.cpu0.commit.op_class_0::FloatMult       786432      1.49%     86.26% # Class of committed instruction
system.cpu0.commit.op_class_0::FloatMultAcc            0      0.00%     86.26% # Class of committed instruction
system.cpu0.commit.op_class_0::FloatDiv             2      0.00%     86.26% # Class of committed instruction
system.cpu0.commit.op_class_0::FloatMisc            6      0.00%     86.26% # Class of committed instruction
system.cpu0.commit.op_class_0::FloatSqrt            0      0.00%     86.26% # Class of committed instruction
system.cpu0.commit.op_class_0::SimdAdd              0      0.00%     86.26% # Class of committed instruction
system.cpu0.commit.op_class_0::SimdAddAcc            0      0.00%     86.26% # Class of committed instruction
system.cpu0.commit.op_class_0::SimdAlu              0      0.00%     86.26% # Class of committed instruction
system.cpu0.commit.op_class_0::SimdCmp              0      0.00%     86.26% # Class of committed instruction
system.cpu0.commit.op_class_0::SimdCvt              0      0.00%     86.26% # Class of committed instruction
system.cpu0.commit.op_class_0::SimdMisc             0      0.00%     86.26% # Class of committed instruction
system.cpu0.commit.op_class_0::SimdMult             0      0.00%     86.26% # Class of committed instruction
system.cpu0.commit.op_class_0::SimdMultAcc            0      0.00%     86.26% # Class of committed instruction
system.cpu0.commit.op_class_0::SimdShift            0      0.00%     86.26% # Class of committed instruction
system.cpu0.commit.op_class_0::SimdShiftAcc            0      0.00%     86.26% # Class of committed instruction
system.cpu0.commit.op_class_0::SimdDiv              0      0.00%     86.26% # Class of committed instruction
system.cpu0.commit.op_class_0::SimdSqrt             0      0.00%     86.26% # Class of committed instruction
system.cpu0.commit.op_class_0::SimdFloatAdd            0      0.00%     86.26% # Class of committed instruction
system.cpu0.commit.op_class_0::SimdFloatAlu            0      0.00%     86.26% # Class of committed instruction
system.cpu0.commit.op_class_0::SimdFloatCmp            0      0.00%     86.26% # Class of committed instruction
system.cpu0.commit.op_class_0::SimdFloatCvt            0      0.00%     86.26% # Class of committed instruction
system.cpu0.commit.op_class_0::SimdFloatDiv            0      0.00%     86.26% # Class of committed instruction
system.cpu0.commit.op_class_0::SimdFloatMisc            0      0.00%     86.26% # Class of committed instruction
system.cpu0.commit.op_class_0::SimdFloatMult            0      0.00%     86.26% # Class of committed instruction
system.cpu0.commit.op_class_0::SimdFloatMultAcc            0      0.00%     86.26% # Class of committed instruction
system.cpu0.commit.op_class_0::SimdFloatSqrt            0      0.00%     86.26% # Class of committed instruction
system.cpu0.commit.op_class_0::SimdReduceAdd            0      0.00%     86.26% # Class of committed instruction
system.cpu0.commit.op_class_0::SimdReduceAlu            0      0.00%     86.26% # Class of committed instruction
system.cpu0.commit.op_class_0::SimdReduceCmp            0      0.00%     86.26% # Class of committed instruction
system.cpu0.commit.op_class_0::SimdFloatReduceAdd            0      0.00%     86.26% # Class of committed instruction
system.cpu0.commit.op_class_0::SimdFloatReduceCmp            0      0.00%     86.26% # Class of committed instruction
system.cpu0.commit.op_class_0::SimdAes              0      0.00%     86.26% # Class of committed instruction
system.cpu0.commit.op_class_0::SimdAesMix            0      0.00%     86.26% # Class of committed instruction
system.cpu0.commit.op_class_0::SimdSha1Hash            0      0.00%     86.26% # Class of committed instruction
system.cpu0.commit.op_class_0::SimdSha1Hash2            0      0.00%     86.26% # Class of committed instruction
system.cpu0.commit.op_class_0::SimdSha256Hash            0      0.00%     86.26% # Class of committed instruction
system.cpu0.commit.op_class_0::SimdSha256Hash2            0      0.00%     86.26% # Class of committed instruction
system.cpu0.commit.op_class_0::SimdShaSigma2            0      0.00%     86.26% # Class of committed instruction
system.cpu0.commit.op_class_0::SimdShaSigma3            0      0.00%     86.26% # Class of committed instruction
system.cpu0.commit.op_class_0::SimdPredAlu            0      0.00%     86.26% # Class of committed instruction
system.cpu0.commit.op_class_0::MemRead        5140582      9.71%     95.97% # Class of committed instruction
system.cpu0.commit.op_class_0::MemWrite       2067183      3.91%     99.88% # Class of committed instruction
system.cpu0.commit.op_class_0::FloatMemRead        65558      0.12%    100.00% # Class of committed instruction
system.cpu0.commit.op_class_0::FloatMemWrite           29      0.00%    100.00% # Class of committed instruction
system.cpu0.commit.op_class_0::IprAccess            0      0.00%    100.00% # Class of committed instruction
system.cpu0.commit.op_class_0::InstPrefetch            0      0.00%    100.00% # Class of committed instruction
system.cpu0.commit.op_class_0::total         52920203                       # Class of committed instruction
system.cpu0.commit.refs                       7273352                       # Number of memory references committed
system.cpu0.commit.swp_count                        0                       # Number of s/w prefetches committed
system.cpu0.commit.vec_insts                        0                       # Number of committed Vector instructions.
system.cpu0.committedInsts                   52854406                       # Number of Instructions Simulated
system.cpu0.committedOps                     52920203                       # Number of Ops (including micro ops) Simulated
system.cpu0.cpi                              1.885917                       # CPI: Cycles Per Instruction
system.cpu0.cpi_total                        1.885917                       # CPI: Total CPI of All Threads
system.cpu0.decode.BlockedCycles             32601427                       # Number of cycles decode is blocked
system.cpu0.decode.BranchMispred              1302148                       # Number of times decode detected a branch misprediction
system.cpu0.decode.BranchResolved            10771936                       # Number of times decode resolved a branch
system.cpu0.decode.DecodedInsts              87560216                       # Number of instructions handled by decode
system.cpu0.decode.IdleCycles                16323142                       # Number of cycles decode is idle
system.cpu0.decode.RunCycles                 47170958                       # Number of cycles decode is running
system.cpu0.decode.SquashCycles               1531110                       # Number of cycles decode is squashing
system.cpu0.decode.SquashedInsts              2636402                       # Number of squashed instructions handled by decode
system.cpu0.decode.UnblockCycles              1205848                       # Number of cycles decode is unblocking
system.cpu0.dtb.accesses                            0                       # DTB accesses
system.cpu0.dtb.hits                                0                       # DTB hits
system.cpu0.dtb.misses                              0                       # DTB misses
system.cpu0.dtb.read_accesses                       0                       # DTB read accesses
system.cpu0.dtb.read_hits                           0                       # DTB read hits
system.cpu0.dtb.read_misses                         0                       # DTB read misses
system.cpu0.dtb.write_accesses                      0                       # DTB write accesses
system.cpu0.dtb.write_hits                          0                       # DTB write hits
system.cpu0.dtb.write_misses                        0                       # DTB write misses
system.cpu0.fetch.Branches                   16779529                       # Number of branches that fetch encountered
system.cpu0.fetch.CacheLines                 12035980                       # Number of cache lines fetched
system.cpu0.fetch.Cycles                     81979229                       # Number of cycles fetch has run and was not squashing or blocked
system.cpu0.fetch.IcacheSquashes                98372                       # Number of outstanding Icache misses that were squashed
system.cpu0.fetch.IcacheWaitRetryStallCycles          167                       # Number of stall cycles due to full MSHR
system.cpu0.fetch.Insts                      99370861                       # Number of instructions fetch has processed
system.cpu0.fetch.MiscStallCycles                  98                       # Number of cycles fetch has spent waiting on interrupts, or bad addresses, or out of MSHRs
system.cpu0.fetch.PendingTrapStallCycles           25                       # Number of stall cycles due to pending traps
system.cpu0.fetch.SquashCycles                5665768                       # Number of cycles fetch has spent squashing
system.cpu0.fetch.branchRate                 0.168336                       # Number of branch fetches per cycle
system.cpu0.fetch.icacheStallCycles          14020082                       # Number of cycles fetch is stalled on an Icache miss
system.cpu0.fetch.predictedBranches          13349284                       # Number of branches that fetch has predicted taken
system.cpu0.fetch.rate                       0.996908                       # Number of inst fetches per cycle
system.cpu0.fetch.rateDist::samples          98832485                       # Number of instructions fetched each cycle (Total)
system.cpu0.fetch.rateDist::mean             1.006115                       # Number of instructions fetched each cycle (Total)
system.cpu0.fetch.rateDist::stdev            1.291457                       # Number of instructions fetched each cycle (Total)
system.cpu0.fetch.rateDist::underflows              0      0.00%      0.00% # Number of instructions fetched each cycle (Total)
system.cpu0.fetch.rateDist::0                43443643     43.96%     43.96% # Number of instructions fetched each cycle (Total)
system.cpu0.fetch.rateDist::1                32330468     32.71%     76.67% # Number of instructions fetched each cycle (Total)
system.cpu0.fetch.rateDist::2                12716667     12.87%     89.54% # Number of instructions fetched each cycle (Total)
system.cpu0.fetch.rateDist::3                 4905831      4.96%     94.50% # Number of instructions fetched each cycle (Total)
system.cpu0.fetch.rateDist::4                 2040626      2.06%     96.56% # Number of instructions fetched each cycle (Total)
system.cpu0.fetch.rateDist::5                 1584769      1.60%     98.17% # Number of instructions fetched each cycle (Total)
system.cpu0.fetch.rateDist::6                 1806901      1.83%    100.00% # Number of instructions fetched each cycle (Total)
system.cpu0.fetch.rateDist::7                     842      0.00%    100.00% # Number of instructions fetched each cycle (Total)
system.cpu0.fetch.rateDist::8                    2738      0.00%    100.00% # Number of instructions fetched each cycle (Total)
system.cpu0.fetch.rateDist::overflows               0      0.00%    100.00% # Number of instructions fetched each cycle (Total)
system.cpu0.fetch.rateDist::min_value               0                       # Number of instructions fetched each cycle (Total)
system.cpu0.fetch.rateDist::max_value               8                       # Number of instructions fetched each cycle (Total)
system.cpu0.fetch.rateDist::total            98832485                       # Number of instructions fetched each cycle (Total)
system.cpu0.fp_regfile_reads                 12346553                       # number of floating regfile reads
system.cpu0.fp_regfile_writes                 3850523                       # number of floating regfile writes
system.cpu0.idleCycles                         846556                       # Total number of cycles that the CPU has spent unscheduled due to idling
system.cpu0.iew.branchMispredicts             1697112                       # Number of branch mispredicts detected at execute
system.cpu0.iew.exec_branches                11716463                       # Number of branches executed
system.cpu0.iew.exec_nop                            0                       # number of nop insts executed
system.cpu0.iew.exec_rate                    0.744852                       # Inst execution rate
system.cpu0.iew.exec_refs                    11231699                       # number of memory reference insts executed
system.cpu0.iew.exec_stores                   2823412                       # Number of stores executed
system.cpu0.iew.exec_swp                            0                       # number of swp insts executed
system.cpu0.iew.iewBlockCycles               29506750                       # Number of cycles IEW is blocking
system.cpu0.iew.iewDispLoadInsts              8686826                       # Number of dispatched load instructions
system.cpu0.iew.iewDispNonSpecInsts             66474                       # Number of dispatched non-speculative instructions
system.cpu0.iew.iewDispSquashedInsts           425749                       # Number of squashed instructions skipped by dispatch
system.cpu0.iew.iewDispStoreInsts             3493450                       # Number of dispatched store instructions
system.cpu0.iew.iewDispatchedInsts           80743425                       # Number of instructions dispatched to IQ
system.cpu0.iew.iewExecLoadInsts              8408287                       # Number of load instructions executed
system.cpu0.iew.iewExecSquashedInsts          1465311                       # Number of squashed instructions skipped in execute
system.cpu0.iew.iewExecutedInsts             74246097                       # Number of executed instructions
system.cpu0.iew.iewIQFullEvents                121349                       # Number of times the IQ has become full, causing a stall
system.cpu0.iew.iewIdleCycles                       0                       # Number of cycles IEW is idle
system.cpu0.iew.iewLSQFullEvents                95596                       # Number of times the LSQ has become full, causing a stall
system.cpu0.iew.iewSquashCycles               1531110                       # Number of cycles IEW is squashing
system.cpu0.iew.iewUnblockCycles               489480                       # Number of cycles IEW is unblocking
system.cpu0.iew.lsq.thread0.blockedLoads            0                       # Number of blocked loads due to partial load-store forwarding
system.cpu0.iew.lsq.thread0.cacheBlocked         6290                       # Number of times an access to memory failed due to the cache being blocked
system.cpu0.iew.lsq.thread0.forwLoads          288410                       # Number of loads that had data forwarded from stores
system.cpu0.iew.lsq.thread0.ignoredResponses         2002                       # Number of memory responses ignored because the instruction is squashed
system.cpu0.iew.lsq.thread0.invAddrLoads            0                       # Number of loads ignored due to an invalid address
system.cpu0.iew.lsq.thread0.invAddrSwpfs            0                       # Number of software prefetches ignored due to an invalid address
system.cpu0.iew.lsq.thread0.memOrderViolation          388                       # Number of memory ordering violations
system.cpu0.iew.lsq.thread0.rescheduledLoads          104                       # Number of loads that were rescheduled
system.cpu0.iew.lsq.thread0.squashedLoads      3546512                       # Number of loads squashed
system.cpu0.iew.lsq.thread0.squashedStores      1360412                       # Number of stores squashed
system.cpu0.iew.memOrderViolationEvents           388                       # Number of memory order violations
system.cpu0.iew.predictedNotTakenIncorrect        72326                       # Number of branches that were predicted not taken incorrectly
system.cpu0.iew.predictedTakenIncorrect       1624786                       # Number of branches that were predicted taken incorrectly
system.cpu0.iew.wb_consumers                 56967759                       # num instructions consuming a value
system.cpu0.iew.wb_count                     73698636                       # cumulative count of insts written-back
system.cpu0.iew.wb_fanout                    0.820334                       # average fanout of values written-back
system.cpu0.iew.wb_producers                 46732608                       # num instructions producing a value
system.cpu0.iew.wb_rate                      0.739359                       # insts written-back per cycle
system.cpu0.iew.wb_sent                      73796635                       # cumulative count of insts sent to commit
system.cpu0.int_regfile_reads                85196046                       # number of integer regfile reads
system.cpu0.int_regfile_writes               56458373                       # number of integer regfile writes
system.cpu0.ipc                              0.530246                       # IPC: Instructions Per Cycle
system.cpu0.ipc_total                        0.530246                       # IPC: Total IPC of All Threads
system.cpu0.iq.FU_type_0::No_OpClass           131815      0.17%      0.17% # Type of FU issued
system.cpu0.iq.FU_type_0::IntAlu             56990791     75.27%     75.45% # Type of FU issued
system.cpu0.iq.FU_type_0::IntMult                6169      0.01%     75.46% # Type of FU issued
system.cpu0.iq.FU_type_0::IntDiv                 8251      0.01%     75.47% # Type of FU issued
system.cpu0.iq.FU_type_0::FloatAdd            1860038      2.46%     77.92% # Type of FU issued
system.cpu0.iq.FU_type_0::FloatCmp            3385518      4.47%     82.40% # Type of FU issued
system.cpu0.iq.FU_type_0::FloatCvt            1017683      1.34%     83.74% # Type of FU issued
system.cpu0.iq.FU_type_0::FloatMult            929278      1.23%     84.97% # Type of FU issued
system.cpu0.iq.FU_type_0::FloatMultAcc              0      0.00%     84.97% # Type of FU issued
system.cpu0.iq.FU_type_0::FloatDiv                  2      0.00%     84.97% # Type of FU issued
system.cpu0.iq.FU_type_0::FloatMisc                 6      0.00%     84.97% # Type of FU issued
system.cpu0.iq.FU_type_0::FloatSqrt                 0      0.00%     84.97% # Type of FU issued
system.cpu0.iq.FU_type_0::SimdAdd                   0      0.00%     84.97% # Type of FU issued
system.cpu0.iq.FU_type_0::SimdAddAcc                0      0.00%     84.97% # Type of FU issued
system.cpu0.iq.FU_type_0::SimdAlu                   0      0.00%     84.97% # Type of FU issued
system.cpu0.iq.FU_type_0::SimdCmp                   0      0.00%     84.97% # Type of FU issued
system.cpu0.iq.FU_type_0::SimdCvt                   0      0.00%     84.97% # Type of FU issued
system.cpu0.iq.FU_type_0::SimdMisc                  0      0.00%     84.97% # Type of FU issued
system.cpu0.iq.FU_type_0::SimdMult                  0      0.00%     84.97% # Type of FU issued
system.cpu0.iq.FU_type_0::SimdMultAcc               0      0.00%     84.97% # Type of FU issued
system.cpu0.iq.FU_type_0::SimdShift                 0      0.00%     84.97% # Type of FU issued
system.cpu0.iq.FU_type_0::SimdShiftAcc              0      0.00%     84.97% # Type of FU issued
system.cpu0.iq.FU_type_0::SimdDiv                   0      0.00%     84.97% # Type of FU issued
system.cpu0.iq.FU_type_0::SimdSqrt                  0      0.00%     84.97% # Type of FU issued
system.cpu0.iq.FU_type_0::SimdFloatAdd              0      0.00%     84.97% # Type of FU issued
system.cpu0.iq.FU_type_0::SimdFloatAlu              0      0.00%     84.97% # Type of FU issued
system.cpu0.iq.FU_type_0::SimdFloatCmp              0      0.00%     84.97% # Type of FU issued
system.cpu0.iq.FU_type_0::SimdFloatCvt              0      0.00%     84.97% # Type of FU issued
system.cpu0.iq.FU_type_0::SimdFloatDiv              0      0.00%     84.97% # Type of FU issued
system.cpu0.iq.FU_type_0::SimdFloatMisc             0      0.00%     84.97% # Type of FU issued
system.cpu0.iq.FU_type_0::SimdFloatMult             0      0.00%     84.97% # Type of FU issued
system.cpu0.iq.FU_type_0::SimdFloatMultAcc            0      0.00%     84.97% # Type of FU issued
system.cpu0.iq.FU_type_0::SimdFloatSqrt             0      0.00%     84.97% # Type of FU issued
system.cpu0.iq.FU_type_0::SimdReduceAdd             0      0.00%     84.97% # Type of FU issued
system.cpu0.iq.FU_type_0::SimdReduceAlu             0      0.00%     84.97% # Type of FU issued
system.cpu0.iq.FU_type_0::SimdReduceCmp             0      0.00%     84.97% # Type of FU issued
system.cpu0.iq.FU_type_0::SimdFloatReduceAdd            0      0.00%     84.97% # Type of FU issued
system.cpu0.iq.FU_type_0::SimdFloatReduceCmp            0      0.00%     84.97% # Type of FU issued
system.cpu0.iq.FU_type_0::SimdAes                   0      0.00%     84.97% # Type of FU issued
system.cpu0.iq.FU_type_0::SimdAesMix                0      0.00%     84.97% # Type of FU issued
system.cpu0.iq.FU_type_0::SimdSha1Hash              0      0.00%     84.97% # Type of FU issued
system.cpu0.iq.FU_type_0::SimdSha1Hash2             0      0.00%     84.97% # Type of FU issued
system.cpu0.iq.FU_type_0::SimdSha256Hash            0      0.00%     84.97% # Type of FU issued
system.cpu0.iq.FU_type_0::SimdSha256Hash2            0      0.00%     84.97% # Type of FU issued
system.cpu0.iq.FU_type_0::SimdShaSigma2             0      0.00%     84.97% # Type of FU issued
system.cpu0.iq.FU_type_0::SimdShaSigma3             0      0.00%     84.97% # Type of FU issued
system.cpu0.iq.FU_type_0::SimdPredAlu               0      0.00%     84.97% # Type of FU issued
system.cpu0.iq.FU_type_0::MemRead             8501091     11.23%     96.20% # Type of FU issued
system.cpu0.iq.FU_type_0::MemWrite            2814636      3.72%     99.91% # Type of FU issued
system.cpu0.iq.FU_type_0::FloatMemRead          66101      0.09%    100.00% # Type of FU issued
system.cpu0.iq.FU_type_0::FloatMemWrite            30      0.00%    100.00% # Type of FU issued
system.cpu0.iq.FU_type_0::IprAccess                 0      0.00%    100.00% # Type of FU issued
system.cpu0.iq.FU_type_0::InstPrefetch              0      0.00%    100.00% # Type of FU issued
system.cpu0.iq.FU_type_0::total              75711409                       # Type of FU issued
system.cpu0.iq.fp_alu_accesses                7259016                       # Number of floating point alu accesses
system.cpu0.iq.fp_inst_queue_reads           14517672                       # Number of floating instruction queue reads
system.cpu0.iq.fp_inst_queue_wakeup_accesses      7235961                       # Number of floating instruction queue wakeup accesses
system.cpu0.iq.fp_inst_queue_writes           9114955                       # Number of floating instruction queue writes
system.cpu0.iq.fu_busy_cnt                     469418                       # FU busy when requested
system.cpu0.iq.fu_busy_rate                  0.006200                       # FU busy rate (busy events/executed inst)
system.cpu0.iq.fu_full::No_OpClass                  0      0.00%      0.00% # attempts to use FU when none available
system.cpu0.iq.fu_full::IntAlu                 429568     91.51%     91.51% # attempts to use FU when none available
system.cpu0.iq.fu_full::IntMult                  5225      1.11%     92.62% # attempts to use FU when none available
system.cpu0.iq.fu_full::IntDiv                  10661      2.27%     94.89% # attempts to use FU when none available
system.cpu0.iq.fu_full::FloatAdd                   80      0.02%     94.91% # attempts to use FU when none available
system.cpu0.iq.fu_full::FloatCmp                  167      0.04%     94.95% # attempts to use FU when none available
system.cpu0.iq.fu_full::FloatCvt                  102      0.02%     94.97% # attempts to use FU when none available
system.cpu0.iq.fu_full::FloatMult                   0      0.00%     94.97% # attempts to use FU when none available
system.cpu0.iq.fu_full::FloatMultAcc                0      0.00%     94.97% # attempts to use FU when none available
system.cpu0.iq.fu_full::FloatDiv                    0      0.00%     94.97% # attempts to use FU when none available
system.cpu0.iq.fu_full::FloatMisc                   0      0.00%     94.97% # attempts to use FU when none available
system.cpu0.iq.fu_full::FloatSqrt                   0      0.00%     94.97% # attempts to use FU when none available
system.cpu0.iq.fu_full::SimdAdd                     0      0.00%     94.97% # attempts to use FU when none available
system.cpu0.iq.fu_full::SimdAddAcc                  0      0.00%     94.97% # attempts to use FU when none available
system.cpu0.iq.fu_full::SimdAlu                     0      0.00%     94.97% # attempts to use FU when none available
system.cpu0.iq.fu_full::SimdCmp                     0      0.00%     94.97% # attempts to use FU when none available
system.cpu0.iq.fu_full::SimdCvt                     0      0.00%     94.97% # attempts to use FU when none available
system.cpu0.iq.fu_full::SimdMisc                    0      0.00%     94.97% # attempts to use FU when none available
system.cpu0.iq.fu_full::SimdMult                    0      0.00%     94.97% # attempts to use FU when none available
system.cpu0.iq.fu_full::SimdMultAcc                 0      0.00%     94.97% # attempts to use FU when none available
system.cpu0.iq.fu_full::SimdShift                   0      0.00%     94.97% # attempts to use FU when none available
system.cpu0.iq.fu_full::SimdShiftAcc                0      0.00%     94.97% # attempts to use FU when none available
system.cpu0.iq.fu_full::SimdDiv                     0      0.00%     94.97% # attempts to use FU when none available
system.cpu0.iq.fu_full::SimdSqrt                    0      0.00%     94.97% # attempts to use FU when none available
system.cpu0.iq.fu_full::SimdFloatAdd                0      0.00%     94.97% # attempts to use FU when none available
system.cpu0.iq.fu_full::SimdFloatAlu                0      0.00%     94.97% # attempts to use FU when none available
system.cpu0.iq.fu_full::SimdFloatCmp                0      0.00%     94.97% # attempts to use FU when none available
system.cpu0.iq.fu_full::SimdFloatCvt                0      0.00%     94.97% # attempts to use FU when none available
system.cpu0.iq.fu_full::SimdFloatDiv                0      0.00%     94.97% # attempts to use FU when none available
system.cpu0.iq.fu_full::SimdFloatMisc               0      0.00%     94.97% # attempts to use FU when none available
system.cpu0.iq.fu_full::SimdFloatMult               0      0.00%     94.97% # attempts to use FU when none available
system.cpu0.iq.fu_full::SimdFloatMultAcc            0      0.00%     94.97% # attempts to use FU when none available
system.cpu0.iq.fu_full::SimdFloatSqrt               0      0.00%     94.97% # attempts to use FU when none available
system.cpu0.iq.fu_full::SimdReduceAdd               0      0.00%     94.97% # attempts to use FU when none available
system.cpu0.iq.fu_full::SimdReduceAlu               0      0.00%     94.97% # attempts to use FU when none available
system.cpu0.iq.fu_full::SimdReduceCmp               0      0.00%     94.97% # attempts to use FU when none available
system.cpu0.iq.fu_full::SimdFloatReduceAdd            0      0.00%     94.97% # attempts to use FU when none available
system.cpu0.iq.fu_full::SimdFloatReduceCmp            0      0.00%     94.97% # attempts to use FU when none available
system.cpu0.iq.fu_full::SimdAes                     0      0.00%     94.97% # attempts to use FU when none available
system.cpu0.iq.fu_full::SimdAesMix                  0      0.00%     94.97% # attempts to use FU when none available
system.cpu0.iq.fu_full::SimdSha1Hash                0      0.00%     94.97% # attempts to use FU when none available
system.cpu0.iq.fu_full::SimdSha1Hash2               0      0.00%     94.97% # attempts to use FU when none available
system.cpu0.iq.fu_full::SimdSha256Hash              0      0.00%     94.97% # attempts to use FU when none available
system.cpu0.iq.fu_full::SimdSha256Hash2             0      0.00%     94.97% # attempts to use FU when none available
system.cpu0.iq.fu_full::SimdShaSigma2               0      0.00%     94.97% # attempts to use FU when none available
system.cpu0.iq.fu_full::SimdShaSigma3               0      0.00%     94.97% # attempts to use FU when none available
system.cpu0.iq.fu_full::SimdPredAlu                 0      0.00%     94.97% # attempts to use FU when none available
system.cpu0.iq.fu_full::MemRead                 21848      4.65%     99.62% # attempts to use FU when none available
system.cpu0.iq.fu_full::MemWrite                 1756      0.37%    100.00% # attempts to use FU when none available
system.cpu0.iq.fu_full::FloatMemRead                7      0.00%    100.00% # attempts to use FU when none available
system.cpu0.iq.fu_full::FloatMemWrite               4      0.00%    100.00% # attempts to use FU when none available
system.cpu0.iq.fu_full::IprAccess                   0      0.00%    100.00% # attempts to use FU when none available
system.cpu0.iq.fu_full::InstPrefetch                0      0.00%    100.00% # attempts to use FU when none available
system.cpu0.iq.int_alu_accesses              68789996                       # Number of integer alu accesses
system.cpu0.iq.int_inst_queue_reads         236559255                       # Number of integer instruction queue reads
system.cpu0.iq.int_inst_queue_wakeup_accesses     66462675                       # Number of integer instruction queue wakeup accesses
system.cpu0.iq.int_inst_queue_writes         99451940                       # Number of integer instruction queue writes
system.cpu0.iq.iqInstsAdded                  80545179                       # Number of instructions added to the IQ (excludes non-spec)
system.cpu0.iq.iqInstsIssued                 75711409                       # Number of instructions issued
system.cpu0.iq.iqNonSpecInstsAdded             198246                       # Number of non-speculative instructions added to the IQ
system.cpu0.iq.iqSquashedInstsExamined       27823218                       # Number of squashed instructions iterated over during squash; mainly for profiling
system.cpu0.iq.iqSquashedInstsIssued           352207                       # Number of squashed instructions issued
system.cpu0.iq.iqSquashedNonSpecRemoved           296                       # Number of squashed non-spec instructions that were removed
system.cpu0.iq.iqSquashedOperandsExamined      8435625                       # Number of squashed operands that are examined and possibly removed from graph
system.cpu0.iq.issued_per_cycle::samples     98832485                       # Number of insts issued each cycle
system.cpu0.iq.issued_per_cycle::mean        0.766058                       # Number of insts issued each cycle
system.cpu0.iq.issued_per_cycle::stdev       1.152980                       # Number of insts issued each cycle
system.cpu0.iq.issued_per_cycle::underflows            0      0.00%      0.00% # Number of insts issued each cycle
system.cpu0.iq.issued_per_cycle::0           55044249     55.69%     55.69% # Number of insts issued each cycle
system.cpu0.iq.issued_per_cycle::1           25372010     25.67%     81.37% # Number of insts issued each cycle
system.cpu0.iq.issued_per_cycle::2           11722589     11.86%     93.23% # Number of insts issued each cycle
system.cpu0.iq.issued_per_cycle::3            2897865      2.93%     96.16% # Number of insts issued each cycle
system.cpu0.iq.issued_per_cycle::4            1901348      1.92%     98.08% # Number of insts issued each cycle
system.cpu0.iq.issued_per_cycle::5            1144505      1.16%     99.24% # Number of insts issued each cycle
system.cpu0.iq.issued_per_cycle::6             455568      0.46%     99.70% # Number of insts issued each cycle
system.cpu0.iq.issued_per_cycle::7             215507      0.22%     99.92% # Number of insts issued each cycle
system.cpu0.iq.issued_per_cycle::8              78844      0.08%    100.00% # Number of insts issued each cycle
system.cpu0.iq.issued_per_cycle::overflows            0      0.00%    100.00% # Number of insts issued each cycle
system.cpu0.iq.issued_per_cycle::min_value            0                       # Number of insts issued each cycle
system.cpu0.iq.issued_per_cycle::max_value            8                       # Number of insts issued each cycle
system.cpu0.iq.issued_per_cycle::total       98832485                       # Number of insts issued each cycle
system.cpu0.iq.rate                          0.759552                       # Inst issue rate
system.cpu0.iq.vec_alu_accesses                     0                       # Number of vector alu accesses
system.cpu0.iq.vec_inst_queue_reads                 0                       # Number of vector instruction queue reads
system.cpu0.iq.vec_inst_queue_wakeup_accesses            0                       # Number of vector instruction queue wakeup accesses
system.cpu0.iq.vec_inst_queue_writes                0                       # Number of vector instruction queue writes
system.cpu0.itb.accesses                            0                       # DTB accesses
system.cpu0.itb.hits                                0                       # DTB hits
system.cpu0.itb.misses                              0                       # DTB misses
system.cpu0.itb.read_accesses                       0                       # DTB read accesses
system.cpu0.itb.read_hits                           0                       # DTB read hits
system.cpu0.itb.read_misses                         0                       # DTB read misses
system.cpu0.itb.write_accesses                      0                       # DTB write accesses
system.cpu0.itb.write_hits                          0                       # DTB write hits
system.cpu0.itb.write_misses                        0                       # DTB write misses
system.cpu0.memDep0.conflictingLoads           508683                       # Number of conflicting loads.
system.cpu0.memDep0.conflictingStores          161014                       # Number of conflicting stores.
system.cpu0.memDep0.insertedLoads             8686826                       # Number of loads inserted to the mem dependence unit.
system.cpu0.memDep0.insertedStores            3493450                       # Number of stores inserted to the mem dependence unit.
system.cpu0.misc_regfile_reads               10888743                       # number of misc regfile reads
system.cpu0.misc_regfile_writes               5570590                       # number of misc regfile writes
system.cpu0.numCycles                        99679041                       # number of cpu cycles simulated
system.cpu0.numWorkItemsCompleted                   0                       # number of work items this cpu completed
system.cpu0.numWorkItemsStarted                     0                       # number of work items this cpu started
system.cpu0.quiesceCycles                     1244497                       # Total number of cycles that CPU has spent quiesced or waiting for an interrupt
system.cpu0.rename.BlockCycles               31185952                       # Number of cycles rename is blocking
system.cpu0.rename.CommittedMaps             43417053                       # Number of HB maps that are committed
system.cpu0.rename.IQFullEvents               1089245                       # Number of times rename has blocked due to IQ full
system.cpu0.rename.IdleCycles                19142679                       # Number of cycles rename is idle
system.cpu0.rename.LQFullEvents                106522                       # Number of times rename has blocked due to LQ full
system.cpu0.rename.ROBFullEvents                 6634                       # Number of times rename has blocked due to ROB full
system.cpu0.rename.RenameLookups            111522101                       # Number of register rename lookups that rename has made
system.cpu0.rename.RenamedInsts              84686253                       # Number of instructions processed by rename
system.cpu0.rename.RenamedOperands           68582875                       # Number of destination operands rename has renamed
system.cpu0.rename.RunCycles                 45300059                       # Number of cycles rename is running
system.cpu0.rename.SQFullEvents                125636                       # Number of times rename has blocked due to SQ full
system.cpu0.rename.SquashCycles               1531110                       # Number of cycles rename is squashing
system.cpu0.rename.UnblockCycles              1651227                       # Number of cycles rename is unblocking
system.cpu0.rename.UndoneMaps                25165817                       # Number of HB maps that are undone due to squashing
system.cpu0.rename.fp_rename_lookups         12681211                       # Number of floating rename lookups
system.cpu0.rename.int_rename_lookups        98840890                       # Number of integer rename lookups
system.cpu0.rename.serializeStallCycles         21458                       # count of cycles rename stalled for serializing inst
system.cpu0.rename.serializingInsts               550                       # count of serializing insts renamed
system.cpu0.rename.skidInsts                  2478775                       # count of insts added to the skid buffer
system.cpu0.rename.tempSerializingInsts           549                       # count of temporary serializing insts renamed
system.cpu0.rob.rob_reads                   175220796                       # The number of ROB reads
system.cpu0.rob.rob_writes                  165576373                       # The number of ROB writes
system.cpu0.timesIdled                          10842                       # Number of times that the entire CPU went into an idle state and unscheduled itself
system.cpu0.workload.numSyscalls                  136                       # Number of system calls
system.cpu1.branchPred.BTBCorrect                   0                       # Number of correct BTB predictions (this stat may not work properly.
system.cpu1.branchPred.BTBHitPct            95.050888                       # BTB Hit Percentage
system.cpu1.branchPred.BTBHits                1025543                       # Number of BTB hits
system.cpu1.branchPred.BTBLookups             1078941                       # Number of BTB lookups
system.cpu1.branchPred.RASInCorrect                 0                       # Number of incorrect RAS predictions.
system.cpu1.branchPred.condIncorrect           181979                       # Number of conditional branches incorrect
system.cpu1.branchPred.condPredicted          1337139                       # Number of conditional branches predicted
system.cpu1.branchPred.indirectHits             11016                       # Number of indirect target hits.
system.cpu1.branchPred.indirectLookups          14416                       # Number of indirect predictor lookups.
system.cpu1.branchPred.indirectMisses            3400                       # Number of indirect misses.
system.cpu1.branchPred.lookups                1637814                       # Number of BP lookups
system.cpu1.branchPred.usedRAS                      0                       # Number of times the RAS was used to get a target.
system.cpu1.branchPredindirectMispredicted         1869                       # Number of mispredicted indirect branches.
system.cpu1.commit.amos                         65659                       # Number of atomic instructions committed
system.cpu1.commit.branchMispredicts           175085                       # The number of times a branch was mispredicted
system.cpu1.commit.branches                    926181                       # Number of branches committed
system.cpu1.commit.bw_lim_events                22504                       # number cycles where commit BW limit reached
system.cpu1.commit.commitNonSpecStalls         197236                       # The number of times commit has been forced to stall to communicate backwards
system.cpu1.commit.commitSquashedInsts        1551017                       # The number of squashed insts skipped by commit
system.cpu1.commit.committedInsts             3801001                       # Number of instructions committed
system.cpu1.commit.committedOps               3866731                       # Number of ops (including micro ops) committed
system.cpu1.commit.committed_per_cycle::samples     23990247                       # Number of insts commited each cycle
system.cpu1.commit.committed_per_cycle::mean     0.161179                       # Number of insts commited each cycle
system.cpu1.commit.committed_per_cycle::stdev     0.643536                       # Number of insts commited each cycle
system.cpu1.commit.committed_per_cycle::underflows            0      0.00%      0.00% # Number of insts commited each cycle
system.cpu1.commit.committed_per_cycle::0     21967600     91.57%     91.57% # Number of insts commited each cycle
system.cpu1.commit.committed_per_cycle::1      1065416      4.44%     96.01% # Number of insts commited each cycle
system.cpu1.commit.committed_per_cycle::2       393532      1.64%     97.65% # Number of insts commited each cycle
system.cpu1.commit.committed_per_cycle::3       381708      1.59%     99.24% # Number of insts commited each cycle
system.cpu1.commit.committed_per_cycle::4       120881      0.50%     99.75% # Number of insts commited each cycle
system.cpu1.commit.committed_per_cycle::5        29137      0.12%     99.87% # Number of insts commited each cycle
system.cpu1.commit.committed_per_cycle::6         6397      0.03%     99.89% # Number of insts commited each cycle
system.cpu1.commit.committed_per_cycle::7         3072      0.01%     99.91% # Number of insts commited each cycle
system.cpu1.commit.committed_per_cycle::8        22504      0.09%    100.00% # Number of insts commited each cycle
system.cpu1.commit.committed_per_cycle::overflows            0      0.00%    100.00% # Number of insts commited each cycle
system.cpu1.commit.committed_per_cycle::min_value            0                       # Number of insts commited each cycle
system.cpu1.commit.committed_per_cycle::max_value            8                       # Number of insts commited each cycle
system.cpu1.commit.committed_per_cycle::total     23990247                       # Number of insts commited each cycle
system.cpu1.commit.fp_insts                        24                       # Number of committed floating point instructions.
system.cpu1.commit.function_calls               17205                       # Number of function calls committed.
system.cpu1.commit.int_insts                  3588096                       # Number of committed integer instructions.
system.cpu1.commit.loads                       986673                       # Number of loads committed
system.cpu1.commit.membars                     131340                       # Number of memory barriers committed
system.cpu1.commit.op_class_0::No_OpClass       131340      3.40%      3.40% # Class of committed instruction
system.cpu1.commit.op_class_0::IntAlu         2328970     60.23%     63.63% # Class of committed instruction
system.cpu1.commit.op_class_0::IntMult            638      0.02%     63.64% # Class of committed instruction
system.cpu1.commit.op_class_0::IntDiv              30      0.00%     63.64% # Class of committed instruction
system.cpu1.commit.op_class_0::FloatAdd             0      0.00%     63.64% # Class of committed instruction
system.cpu1.commit.op_class_0::FloatCmp             0      0.00%     63.64% # Class of committed instruction
system.cpu1.commit.op_class_0::FloatCvt             0      0.00%     63.64% # Class of committed instruction
system.cpu1.commit.op_class_0::FloatMult            0      0.00%     63.64% # Class of committed instruction
system.cpu1.commit.op_class_0::FloatMultAcc            0      0.00%     63.64% # Class of committed instruction
system.cpu1.commit.op_class_0::FloatDiv             0      0.00%     63.64% # Class of committed instruction
system.cpu1.commit.op_class_0::FloatMisc            0      0.00%     63.64% # Class of committed instruction
system.cpu1.commit.op_class_0::FloatSqrt            0      0.00%     63.64% # Class of committed instruction
system.cpu1.commit.op_class_0::SimdAdd              0      0.00%     63.64% # Class of committed instruction
system.cpu1.commit.op_class_0::SimdAddAcc            0      0.00%     63.64% # Class of committed instruction
system.cpu1.commit.op_class_0::SimdAlu              0      0.00%     63.64% # Class of committed instruction
system.cpu1.commit.op_class_0::SimdCmp              0      0.00%     63.64% # Class of committed instruction
system.cpu1.commit.op_class_0::SimdCvt              0      0.00%     63.64% # Class of committed instruction
system.cpu1.commit.op_class_0::SimdMisc             0      0.00%     63.64% # Class of committed instruction
system.cpu1.commit.op_class_0::SimdMult             0      0.00%     63.64% # Class of committed instruction
system.cpu1.commit.op_class_0::SimdMultAcc            0      0.00%     63.64% # Class of committed instruction
system.cpu1.commit.op_class_0::SimdShift            0      0.00%     63.64% # Class of committed instruction
system.cpu1.commit.op_class_0::SimdShiftAcc            0      0.00%     63.64% # Class of committed instruction
system.cpu1.commit.op_class_0::SimdDiv              0      0.00%     63.64% # Class of committed instruction
system.cpu1.commit.op_class_0::SimdSqrt             0      0.00%     63.64% # Class of committed instruction
system.cpu1.commit.op_class_0::SimdFloatAdd            0      0.00%     63.64% # Class of committed instruction
system.cpu1.commit.op_class_0::SimdFloatAlu            0      0.00%     63.64% # Class of committed instruction
system.cpu1.commit.op_class_0::SimdFloatCmp            0      0.00%     63.64% # Class of committed instruction
system.cpu1.commit.op_class_0::SimdFloatCvt            0      0.00%     63.64% # Class of committed instruction
system.cpu1.commit.op_class_0::SimdFloatDiv            0      0.00%     63.64% # Class of committed instruction
system.cpu1.commit.op_class_0::SimdFloatMisc            0      0.00%     63.64% # Class of committed instruction
system.cpu1.commit.op_class_0::SimdFloatMult            0      0.00%     63.64% # Class of committed instruction
system.cpu1.commit.op_class_0::SimdFloatMultAcc            0      0.00%     63.64% # Class of committed instruction
system.cpu1.commit.op_class_0::SimdFloatSqrt            0      0.00%     63.64% # Class of committed instruction
system.cpu1.commit.op_class_0::SimdReduceAdd            0      0.00%     63.64% # Class of committed instruction
system.cpu1.commit.op_class_0::SimdReduceAlu            0      0.00%     63.64% # Class of committed instruction
system.cpu1.commit.op_class_0::SimdReduceCmp            0      0.00%     63.64% # Class of committed instruction
system.cpu1.commit.op_class_0::SimdFloatReduceAdd            0      0.00%     63.64% # Class of committed instruction
system.cpu1.commit.op_class_0::SimdFloatReduceCmp            0      0.00%     63.64% # Class of committed instruction
system.cpu1.commit.op_class_0::SimdAes              0      0.00%     63.64% # Class of committed instruction
system.cpu1.commit.op_class_0::SimdAesMix            0      0.00%     63.64% # Class of committed instruction
system.cpu1.commit.op_class_0::SimdSha1Hash            0      0.00%     63.64% # Class of committed instruction
system.cpu1.commit.op_class_0::SimdSha1Hash2            0      0.00%     63.64% # Class of committed instruction
system.cpu1.commit.op_class_0::SimdSha256Hash            0      0.00%     63.64% # Class of committed instruction
system.cpu1.commit.op_class_0::SimdSha256Hash2            0      0.00%     63.64% # Class of committed instruction
system.cpu1.commit.op_class_0::SimdShaSigma2            0      0.00%     63.64% # Class of committed instruction
system.cpu1.commit.op_class_0::SimdShaSigma3            0      0.00%     63.64% # Class of committed instruction
system.cpu1.commit.op_class_0::SimdPredAlu            0      0.00%     63.64% # Class of committed instruction
system.cpu1.commit.op_class_0::MemRead        1052326     27.21%     90.86% # Class of committed instruction
system.cpu1.commit.op_class_0::MemWrite        353403      9.14%    100.00% # Class of committed instruction
system.cpu1.commit.op_class_0::FloatMemRead            6      0.00%    100.00% # Class of committed instruction
system.cpu1.commit.op_class_0::FloatMemWrite           18      0.00%    100.00% # Class of committed instruction
system.cpu1.commit.op_class_0::IprAccess            0      0.00%    100.00% # Class of committed instruction
system.cpu1.commit.op_class_0::InstPrefetch            0      0.00%    100.00% # Class of committed instruction
system.cpu1.commit.op_class_0::total          3866731                       # Class of committed instruction
system.cpu1.commit.refs                       1405753                       # Number of memory references committed
system.cpu1.commit.swp_count                        0                       # Number of s/w prefetches committed
system.cpu1.commit.vec_insts                        0                       # Number of committed Vector instructions.
system.cpu1.committedInsts                    3801001                       # Number of Instructions Simulated
system.cpu1.committedOps                      3866731                       # Number of Ops (including micro ops) Simulated
system.cpu1.cpi                              6.422936                       # CPI: Cycles Per Instruction
system.cpu1.cpi_total                        6.422936                       # CPI: Total CPI of All Threads
system.cpu1.decode.BlockedCycles             19612043                       # Number of cycles decode is blocked
system.cpu1.decode.BranchMispred                 7021                       # Number of times decode detected a branch misprediction
system.cpu1.decode.BranchResolved              946163                       # Number of times decode resolved a branch
system.cpu1.decode.DecodedInsts               6102280                       # Number of instructions handled by decode
system.cpu1.decode.IdleCycles                 1023883                       # Number of cycles decode is idle
system.cpu1.decode.RunCycles                  3269066                       # Number of cycles decode is running
system.cpu1.decode.SquashCycles                175288                       # Number of cycles decode is squashing
system.cpu1.decode.SquashedInsts                13063                       # Number of squashed instructions handled by decode
system.cpu1.decode.UnblockCycles               196544                       # Number of cycles decode is unblocking
system.cpu1.dtb.accesses                            0                       # DTB accesses
system.cpu1.dtb.hits                                0                       # DTB hits
system.cpu1.dtb.misses                              0                       # DTB misses
system.cpu1.dtb.read_accesses                       0                       # DTB read accesses
system.cpu1.dtb.read_hits                           0                       # DTB read hits
system.cpu1.dtb.read_misses                         0                       # DTB read misses
system.cpu1.dtb.write_accesses                      0                       # DTB write accesses
system.cpu1.dtb.write_hits                          0                       # DTB write hits
system.cpu1.dtb.write_misses                        0                       # DTB write misses
system.cpu1.fetch.Branches                    1637814                       # Number of branches that fetch encountered
system.cpu1.fetch.CacheLines                   781302                       # Number of cache lines fetched
system.cpu1.fetch.Cycles                     23200929                       # Number of cycles fetch has run and was not squashing or blocked
system.cpu1.fetch.IcacheSquashes                54210                       # Number of outstanding Icache misses that were squashed
system.cpu1.fetch.IcacheWaitRetryStallCycles           18                       # Number of stall cycles due to full MSHR
system.cpu1.fetch.Insts                       6397706                       # Number of instructions fetch has processed
system.cpu1.fetch.MiscStallCycles                   2                       # Number of cycles fetch has spent waiting on interrupts, or bad addresses, or out of MSHRs
system.cpu1.fetch.SquashCycles                 364364                       # Number of cycles fetch has spent squashing
system.cpu1.fetch.branchRate                 0.067086                       # Number of branch fetches per cycle
system.cpu1.fetch.icacheStallCycles            893693                       # Number of cycles fetch is stalled on an Icache miss
system.cpu1.fetch.predictedBranches           1036559                       # Number of branches that fetch has predicted taken
system.cpu1.fetch.rate                       0.262055                       # Number of inst fetches per cycle
system.cpu1.fetch.rateDist::samples          24276824                       # Number of instructions fetched each cycle (Total)
system.cpu1.fetch.rateDist::mean             0.266256                       # Number of instructions fetched each cycle (Total)
system.cpu1.fetch.rateDist::stdev            0.670324                       # Number of instructions fetched each cycle (Total)
system.cpu1.fetch.rateDist::underflows              0      0.00%      0.00% # Number of instructions fetched each cycle (Total)
system.cpu1.fetch.rateDist::0                19813057     81.61%     81.61% # Number of instructions fetched each cycle (Total)
system.cpu1.fetch.rateDist::1                 3164306     13.03%     94.65% # Number of instructions fetched each cycle (Total)
system.cpu1.fetch.rateDist::2                  861349      3.55%     98.20% # Number of instructions fetched each cycle (Total)
system.cpu1.fetch.rateDist::3                  270713      1.12%     99.31% # Number of instructions fetched each cycle (Total)
system.cpu1.fetch.rateDist::4                   91474      0.38%     99.69% # Number of instructions fetched each cycle (Total)
system.cpu1.fetch.rateDist::5                   60409      0.25%     99.94% # Number of instructions fetched each cycle (Total)
system.cpu1.fetch.rateDist::6                   13513      0.06%     99.99% # Number of instructions fetched each cycle (Total)
system.cpu1.fetch.rateDist::7                     343      0.00%     99.99% # Number of instructions fetched each cycle (Total)
system.cpu1.fetch.rateDist::8                    1660      0.01%    100.00% # Number of instructions fetched each cycle (Total)
system.cpu1.fetch.rateDist::overflows               0      0.00%    100.00% # Number of instructions fetched each cycle (Total)
system.cpu1.fetch.rateDist::min_value               0                       # Number of instructions fetched each cycle (Total)
system.cpu1.fetch.rateDist::max_value               8                       # Number of instructions fetched each cycle (Total)
system.cpu1.fetch.rateDist::total            24276824                       # Number of instructions fetched each cycle (Total)
system.cpu1.fp_regfile_reads                       18                       # number of floating regfile reads
system.cpu1.fp_regfile_writes                      12                       # number of floating regfile writes
system.cpu1.idleCycles                         136761                       # Total number of cycles that the CPU has spent unscheduled due to idling
system.cpu1.iew.branchMispredicts              181879                       # Number of branch mispredicts detected at execute
system.cpu1.iew.exec_branches                 1112872                       # Number of branches executed
system.cpu1.iew.exec_nop                            0                       # number of nop insts executed
system.cpu1.iew.exec_rate                    0.198257                       # Inst execution rate
system.cpu1.iew.exec_refs                     1694863                       # number of memory reference insts executed
system.cpu1.iew.exec_stores                    525812                       # Number of stores executed
system.cpu1.iew.exec_swp                            0                       # number of swp insts executed
system.cpu1.iew.iewBlockCycles               17992442                       # Number of cycles IEW is blocking
system.cpu1.iew.iewDispLoadInsts              1316400                       # Number of dispatched load instructions
system.cpu1.iew.iewDispNonSpecInsts             66057                       # Number of dispatched non-speculative instructions
system.cpu1.iew.iewDispSquashedInsts           165117                       # Number of squashed instructions skipped by dispatch
system.cpu1.iew.iewDispStoreInsts              619167                       # Number of dispatched store instructions
system.cpu1.iew.iewDispatchedInsts            5417296                       # Number of instructions dispatched to IQ
system.cpu1.iew.iewExecLoadInsts              1169051                       # Number of load instructions executed
system.cpu1.iew.iewExecSquashedInsts           220619                       # Number of squashed instructions skipped in execute
system.cpu1.iew.iewExecutedInsts              4840161                       # Number of executed instructions
system.cpu1.iew.iewIQFullEvents                 45286                       # Number of times the IQ has become full, causing a stall
system.cpu1.iew.iewIdleCycles                       0                       # Number of cycles IEW is idle
system.cpu1.iew.iewLSQFullEvents                47078                       # Number of times the LSQ has become full, causing a stall
system.cpu1.iew.iewSquashCycles                175288                       # Number of cycles IEW is squashing
system.cpu1.iew.iewUnblockCycles               206894                       # Number of cycles IEW is unblocking
system.cpu1.iew.lsq.thread0.blockedLoads            0                       # Number of blocked loads due to partial load-store forwarding
system.cpu1.iew.lsq.thread0.cacheBlocked         3124                       # Number of times an access to memory failed due to the cache being blocked
system.cpu1.iew.lsq.thread0.forwLoads           39253                       # Number of loads that had data forwarded from stores
system.cpu1.iew.lsq.thread0.ignoredResponses         1904                       # Number of memory responses ignored because the instruction is squashed
system.cpu1.iew.lsq.thread0.invAddrLoads            0                       # Number of loads ignored due to an invalid address
system.cpu1.iew.lsq.thread0.invAddrSwpfs            0                       # Number of software prefetches ignored due to an invalid address
system.cpu1.iew.lsq.thread0.memOrderViolation          320                       # Number of memory ordering violations
system.cpu1.iew.lsq.thread0.rescheduledLoads          128                       # Number of loads that were rescheduled
system.cpu1.iew.lsq.thread0.squashedLoads       329727                       # Number of loads squashed
system.cpu1.iew.lsq.thread0.squashedStores       200087                       # Number of stores squashed
system.cpu1.iew.memOrderViolationEvents           320                       # Number of memory order violations
system.cpu1.iew.predictedNotTakenIncorrect        86099                       # Number of branches that were predicted not taken incorrectly
system.cpu1.iew.predictedTakenIncorrect         95780                       # Number of branches that were predicted taken incorrectly
system.cpu1.iew.wb_consumers                  2203799                       # num instructions consuming a value
system.cpu1.iew.wb_count                      4734105                       # cumulative count of insts written-back
system.cpu1.iew.wb_fanout                    0.785008                       # average fanout of values written-back
system.cpu1.iew.wb_producers                  1730000                       # num instructions producing a value
system.cpu1.iew.wb_rate                      0.193913                       # insts written-back per cycle
system.cpu1.iew.wb_sent                       4740067                       # cumulative count of insts sent to commit
system.cpu1.int_regfile_reads                 6088163                       # number of integer regfile reads
system.cpu1.int_regfile_writes                3046475                       # number of integer regfile writes
system.cpu1.ipc                              0.155692                       # IPC: Instructions Per Cycle
system.cpu1.ipc_total                        0.155692                       # IPC: Total IPC of All Threads
system.cpu1.iq.FU_type_0::No_OpClass           131423      2.60%      2.60% # Type of FU issued
system.cpu1.iq.FU_type_0::IntAlu              3153002     62.30%     64.90% # Type of FU issued
system.cpu1.iq.FU_type_0::IntMult                 647      0.01%     64.91% # Type of FU issued
system.cpu1.iq.FU_type_0::IntDiv                   30      0.00%     64.91% # Type of FU issued
system.cpu1.iq.FU_type_0::FloatAdd                  0      0.00%     64.91% # Type of FU issued
system.cpu1.iq.FU_type_0::FloatCmp                  0      0.00%     64.91% # Type of FU issued
system.cpu1.iq.FU_type_0::FloatCvt                  0      0.00%     64.91% # Type of FU issued
system.cpu1.iq.FU_type_0::FloatMult                 0      0.00%     64.91% # Type of FU issued
system.cpu1.iq.FU_type_0::FloatMultAcc              0      0.00%     64.91% # Type of FU issued
system.cpu1.iq.FU_type_0::FloatDiv                  0      0.00%     64.91% # Type of FU issued
system.cpu1.iq.FU_type_0::FloatMisc                 0      0.00%     64.91% # Type of FU issued
system.cpu1.iq.FU_type_0::FloatSqrt                 0      0.00%     64.91% # Type of FU issued
system.cpu1.iq.FU_type_0::SimdAdd                   0      0.00%     64.91% # Type of FU issued
system.cpu1.iq.FU_type_0::SimdAddAcc                0      0.00%     64.91% # Type of FU issued
system.cpu1.iq.FU_type_0::SimdAlu                   0      0.00%     64.91% # Type of FU issued
system.cpu1.iq.FU_type_0::SimdCmp                   0      0.00%     64.91% # Type of FU issued
system.cpu1.iq.FU_type_0::SimdCvt                   0      0.00%     64.91% # Type of FU issued
system.cpu1.iq.FU_type_0::SimdMisc                  0      0.00%     64.91% # Type of FU issued
system.cpu1.iq.FU_type_0::SimdMult                  0      0.00%     64.91% # Type of FU issued
system.cpu1.iq.FU_type_0::SimdMultAcc               0      0.00%     64.91% # Type of FU issued
system.cpu1.iq.FU_type_0::SimdShift                 0      0.00%     64.91% # Type of FU issued
system.cpu1.iq.FU_type_0::SimdShiftAcc              0      0.00%     64.91% # Type of FU issued
system.cpu1.iq.FU_type_0::SimdDiv                   0      0.00%     64.91% # Type of FU issued
system.cpu1.iq.FU_type_0::SimdSqrt                  0      0.00%     64.91% # Type of FU issued
system.cpu1.iq.FU_type_0::SimdFloatAdd              0      0.00%     64.91% # Type of FU issued
system.cpu1.iq.FU_type_0::SimdFloatAlu              0      0.00%     64.91% # Type of FU issued
system.cpu1.iq.FU_type_0::SimdFloatCmp              0      0.00%     64.91% # Type of FU issued
system.cpu1.iq.FU_type_0::SimdFloatCvt              0      0.00%     64.91% # Type of FU issued
system.cpu1.iq.FU_type_0::SimdFloatDiv              0      0.00%     64.91% # Type of FU issued
system.cpu1.iq.FU_type_0::SimdFloatMisc             0      0.00%     64.91% # Type of FU issued
system.cpu1.iq.FU_type_0::SimdFloatMult             0      0.00%     64.91% # Type of FU issued
system.cpu1.iq.FU_type_0::SimdFloatMultAcc            0      0.00%     64.91% # Type of FU issued
system.cpu1.iq.FU_type_0::SimdFloatSqrt             0      0.00%     64.91% # Type of FU issued
system.cpu1.iq.FU_type_0::SimdReduceAdd             0      0.00%     64.91% # Type of FU issued
system.cpu1.iq.FU_type_0::SimdReduceAlu             0      0.00%     64.91% # Type of FU issued
system.cpu1.iq.FU_type_0::SimdReduceCmp             0      0.00%     64.91% # Type of FU issued
system.cpu1.iq.FU_type_0::SimdFloatReduceAdd            0      0.00%     64.91% # Type of FU issued
system.cpu1.iq.FU_type_0::SimdFloatReduceCmp            0      0.00%     64.91% # Type of FU issued
system.cpu1.iq.FU_type_0::SimdAes                   0      0.00%     64.91% # Type of FU issued
system.cpu1.iq.FU_type_0::SimdAesMix                0      0.00%     64.91% # Type of FU issued
system.cpu1.iq.FU_type_0::SimdSha1Hash              0      0.00%     64.91% # Type of FU issued
system.cpu1.iq.FU_type_0::SimdSha1Hash2             0      0.00%     64.91% # Type of FU issued
system.cpu1.iq.FU_type_0::SimdSha256Hash            0      0.00%     64.91% # Type of FU issued
system.cpu1.iq.FU_type_0::SimdSha256Hash2            0      0.00%     64.91% # Type of FU issued
system.cpu1.iq.FU_type_0::SimdShaSigma2             0      0.00%     64.91% # Type of FU issued
system.cpu1.iq.FU_type_0::SimdShaSigma3             0      0.00%     64.91% # Type of FU issued
system.cpu1.iq.FU_type_0::SimdPredAlu               0      0.00%     64.91% # Type of FU issued
system.cpu1.iq.FU_type_0::MemRead             1292753     25.54%     90.46% # Type of FU issued
system.cpu1.iq.FU_type_0::MemWrite             482883      9.54%    100.00% # Type of FU issued
system.cpu1.iq.FU_type_0::FloatMemRead             24      0.00%    100.00% # Type of FU issued
system.cpu1.iq.FU_type_0::FloatMemWrite            18      0.00%    100.00% # Type of FU issued
system.cpu1.iq.FU_type_0::IprAccess                 0      0.00%    100.00% # Type of FU issued
system.cpu1.iq.FU_type_0::InstPrefetch              0      0.00%    100.00% # Type of FU issued
system.cpu1.iq.FU_type_0::total               5060780                       # Type of FU issued
system.cpu1.iq.fp_alu_accesses                     48                       # Number of floating point alu accesses
system.cpu1.iq.fp_inst_queue_reads                 90                       # Number of floating instruction queue reads
system.cpu1.iq.fp_inst_queue_wakeup_accesses           30                       # Number of floating instruction queue wakeup accesses
system.cpu1.iq.fp_inst_queue_writes                36                       # Number of floating instruction queue writes
system.cpu1.iq.fu_busy_cnt                      33713                       # FU busy when requested
system.cpu1.iq.fu_busy_rate                  0.006662                       # FU busy rate (busy events/executed inst)
system.cpu1.iq.fu_full::No_OpClass                  0      0.00%      0.00% # attempts to use FU when none available
system.cpu1.iq.fu_full::IntAlu                  11672     34.62%     34.62% # attempts to use FU when none available
system.cpu1.iq.fu_full::IntMult                     0      0.00%     34.62% # attempts to use FU when none available
system.cpu1.iq.fu_full::IntDiv                      0      0.00%     34.62% # attempts to use FU when none available
system.cpu1.iq.fu_full::FloatAdd                    0      0.00%     34.62% # attempts to use FU when none available
system.cpu1.iq.fu_full::FloatCmp                    0      0.00%     34.62% # attempts to use FU when none available
system.cpu1.iq.fu_full::FloatCvt                    0      0.00%     34.62% # attempts to use FU when none available
system.cpu1.iq.fu_full::FloatMult                   0      0.00%     34.62% # attempts to use FU when none available
system.cpu1.iq.fu_full::FloatMultAcc                0      0.00%     34.62% # attempts to use FU when none available
system.cpu1.iq.fu_full::FloatDiv                    0      0.00%     34.62% # attempts to use FU when none available
system.cpu1.iq.fu_full::FloatMisc                   0      0.00%     34.62% # attempts to use FU when none available
system.cpu1.iq.fu_full::FloatSqrt                   0      0.00%     34.62% # attempts to use FU when none available
system.cpu1.iq.fu_full::SimdAdd                     0      0.00%     34.62% # attempts to use FU when none available
system.cpu1.iq.fu_full::SimdAddAcc                  0      0.00%     34.62% # attempts to use FU when none available
system.cpu1.iq.fu_full::SimdAlu                     0      0.00%     34.62% # attempts to use FU when none available
system.cpu1.iq.fu_full::SimdCmp                     0      0.00%     34.62% # attempts to use FU when none available
system.cpu1.iq.fu_full::SimdCvt                     0      0.00%     34.62% # attempts to use FU when none available
system.cpu1.iq.fu_full::SimdMisc                    0      0.00%     34.62% # attempts to use FU when none available
system.cpu1.iq.fu_full::SimdMult                    0      0.00%     34.62% # attempts to use FU when none available
system.cpu1.iq.fu_full::SimdMultAcc                 0      0.00%     34.62% # attempts to use FU when none available
system.cpu1.iq.fu_full::SimdShift                   0      0.00%     34.62% # attempts to use FU when none available
system.cpu1.iq.fu_full::SimdShiftAcc                0      0.00%     34.62% # attempts to use FU when none available
system.cpu1.iq.fu_full::SimdDiv                     0      0.00%     34.62% # attempts to use FU when none available
system.cpu1.iq.fu_full::SimdSqrt                    0      0.00%     34.62% # attempts to use FU when none available
system.cpu1.iq.fu_full::SimdFloatAdd                0      0.00%     34.62% # attempts to use FU when none available
system.cpu1.iq.fu_full::SimdFloatAlu                0      0.00%     34.62% # attempts to use FU when none available
system.cpu1.iq.fu_full::SimdFloatCmp                0      0.00%     34.62% # attempts to use FU when none available
system.cpu1.iq.fu_full::SimdFloatCvt                0      0.00%     34.62% # attempts to use FU when none available
system.cpu1.iq.fu_full::SimdFloatDiv                0      0.00%     34.62% # attempts to use FU when none available
system.cpu1.iq.fu_full::SimdFloatMisc               0      0.00%     34.62% # attempts to use FU when none available
system.cpu1.iq.fu_full::SimdFloatMult               0      0.00%     34.62% # attempts to use FU when none available
system.cpu1.iq.fu_full::SimdFloatMultAcc            0      0.00%     34.62% # attempts to use FU when none available
system.cpu1.iq.fu_full::SimdFloatSqrt               0      0.00%     34.62% # attempts to use FU when none available
system.cpu1.iq.fu_full::SimdReduceAdd               0      0.00%     34.62% # attempts to use FU when none available
system.cpu1.iq.fu_full::SimdReduceAlu               0      0.00%     34.62% # attempts to use FU when none available
system.cpu1.iq.fu_full::SimdReduceCmp               0      0.00%     34.62% # attempts to use FU when none available
system.cpu1.iq.fu_full::SimdFloatReduceAdd            0      0.00%     34.62% # attempts to use FU when none available
system.cpu1.iq.fu_full::SimdFloatReduceCmp            0      0.00%     34.62% # attempts to use FU when none available
system.cpu1.iq.fu_full::SimdAes                     0      0.00%     34.62% # attempts to use FU when none available
system.cpu1.iq.fu_full::SimdAesMix                  0      0.00%     34.62% # attempts to use FU when none available
system.cpu1.iq.fu_full::SimdSha1Hash                0      0.00%     34.62% # attempts to use FU when none available
system.cpu1.iq.fu_full::SimdSha1Hash2               0      0.00%     34.62% # attempts to use FU when none available
system.cpu1.iq.fu_full::SimdSha256Hash              0      0.00%     34.62% # attempts to use FU when none available
system.cpu1.iq.fu_full::SimdSha256Hash2             0      0.00%     34.62% # attempts to use FU when none available
system.cpu1.iq.fu_full::SimdShaSigma2               0      0.00%     34.62% # attempts to use FU when none available
system.cpu1.iq.fu_full::SimdShaSigma3               0      0.00%     34.62% # attempts to use FU when none available
system.cpu1.iq.fu_full::SimdPredAlu                 0      0.00%     34.62% # attempts to use FU when none available
[...]
system.cpu1.dcache.WriteReq_mshr_misses::total        22799                       # number of WriteReq MSHR misses
system.cpu1.dcache.WriteReq_mshr_miss_latency::.cpu1.data   1620666543                       # number of WriteReq MSHR miss cycles
system.cpu1.dcache.WriteReq_mshr_miss_latency::total   1620666543                       # number of WriteReq MSHR miss cycles
system.cpu1.dcache.WriteReq_mshr_miss_rate::.cpu1.data     0.066172                       # mshr miss rate for WriteReq accesses
system.cpu1.dcache.WriteReq_mshr_miss_rate::total     0.066172                       # mshr miss rate for WriteReq accesses
system.cpu1.dcache.WriteReq_avg_mshr_miss_latency::.cpu1.data 71084.983683                       # average WriteReq mshr miss latency
system.cpu1.dcache.WriteReq_avg_mshr_miss_latency::total 71084.983683                       # average WriteReq mshr miss latency
system.cpu1.dcache.LoadLockedReq_hits::.cpu1.data         3160                       # number of LoadLockedReq hits
system.cpu1.dcache.LoadLockedReq_hits::total         3160                       # number of LoadLockedReq hits
system.cpu1.dcache.LoadLockedReq_misses::.cpu1.data         1017                       # number of LoadLockedReq misses
system.cpu1.dcache.LoadLockedReq_misses::total         1017                       # number of LoadLockedReq misses
system.cpu1.dcache.LoadLockedReq_miss_latency::.cpu1.data     33214500                       # number of LoadLockedReq miss cycles
system.cpu1.dcache.LoadLockedReq_miss_latency::total     33214500                       # number of LoadLockedReq miss cycles
system.cpu1.dcache.LoadLockedReq_accesses::.cpu1.data         4177                       # number of LoadLockedReq accesses(hits+misses)
system.cpu1.dcache.LoadLockedReq_accesses::total         4177                       # number of LoadLockedReq accesses(hits+misses)
system.cpu1.dcache.LoadLockedReq_miss_rate::.cpu1.data     0.243476                       # miss rate for LoadLockedReq accesses
system.cpu1.dcache.LoadLockedReq_miss_rate::total     0.243476                       # miss rate for LoadLockedReq accesses
system.cpu1.dcache.LoadLockedReq_avg_miss_latency::.cpu1.data 32659.292035                       # average LoadLockedReq miss latency
system.cpu1.dcache.LoadLockedReq_avg_miss_latency::total 32659.292035                       # average LoadLockedReq miss latency
system.cpu1.dcache.LoadLockedReq_mshr_hits::.cpu1.data          482                       # number of LoadLockedReq MSHR hits
system.cpu1.dcache.LoadLockedReq_mshr_hits::total          482                       # number of LoadLockedReq MSHR hits
system.cpu1.dcache.LoadLockedReq_mshr_misses::.cpu1.data          535                       # number of LoadLockedReq MSHR misses
system.cpu1.dcache.LoadLockedReq_mshr_misses::total          535                       # number of LoadLockedReq MSHR misses
system.cpu1.dcache.LoadLockedReq_mshr_miss_latency::.cpu1.data      3455500                       # number of LoadLockedReq MSHR miss cycles
system.cpu1.dcache.LoadLockedReq_mshr_miss_latency::total      3455500                       # number of LoadLockedReq MSHR miss cycles
system.cpu1.dcache.LoadLockedReq_mshr_miss_rate::.cpu1.data     0.128082                       # mshr miss rate for LoadLockedReq accesses
system.cpu1.dcache.LoadLockedReq_mshr_miss_rate::total     0.128082                       # mshr miss rate for LoadLockedReq accesses
system.cpu1.dcache.LoadLockedReq_avg_mshr_miss_latency::.cpu1.data  6458.878505                       # average LoadLockedReq mshr miss latency
system.cpu1.dcache.LoadLockedReq_avg_mshr_miss_latency::total  6458.878505                       # average LoadLockedReq mshr miss latency
system.cpu1.dcache.StoreCondReq_hits::.cpu1.data         1434                       # number of StoreCondReq hits
system.cpu1.dcache.StoreCondReq_hits::total         1434                       # number of StoreCondReq hits
system.cpu1.dcache.StoreCondReq_misses::.cpu1.data         1485                       # number of StoreCondReq misses
system.cpu1.dcache.StoreCondReq_misses::total         1485                       # number of StoreCondReq misses
system.cpu1.dcache.StoreCondReq_miss_latency::.cpu1.data      9717500                       # number of StoreCondReq miss cycles
system.cpu1.dcache.StoreCondReq_miss_latency::total      9717500                       # number of StoreCondReq miss cycles
system.cpu1.dcache.StoreCondReq_accesses::.cpu1.data         2919                       # number of StoreCondReq accesses(hits+misses)
system.cpu1.dcache.StoreCondReq_accesses::total         2919                       # number of StoreCondReq accesses(hits+misses)
system.cpu1.dcache.StoreCondReq_miss_rate::.cpu1.data     0.508736                       # miss rate for StoreCondReq accesses
system.cpu1.dcache.StoreCondReq_miss_rate::total     0.508736                       # miss rate for StoreCondReq accesses
system.cpu1.dcache.StoreCondReq_avg_miss_latency::.cpu1.data  6543.771044                       # average StoreCondReq miss latency
system.cpu1.dcache.StoreCondReq_avg_miss_latency::total  6543.771044                       # average StoreCondReq miss latency
system.cpu1.dcache.StoreCondReq_mshr_misses::.cpu1.data         1415                       # number of StoreCondReq MSHR misses
system.cpu1.dcache.StoreCondReq_mshr_misses::total         1415                       # number of StoreCondReq MSHR misses
system.cpu1.dcache.StoreCondReq_mshr_miss_latency::.cpu1.data      8547500                       # number of StoreCondReq MSHR miss cycles
system.cpu1.dcache.StoreCondReq_mshr_miss_latency::total      8547500                       # number of StoreCondReq MSHR miss cycles
system.cpu1.dcache.StoreCondReq_mshr_miss_rate::.cpu1.data     0.484755                       # mshr miss rate for StoreCondReq accesses
system.cpu1.dcache.StoreCondReq_mshr_miss_rate::total     0.484755                       # mshr miss rate for StoreCondReq accesses
system.cpu1.dcache.StoreCondReq_avg_mshr_miss_latency::.cpu1.data  6040.636042                       # average StoreCondReq mshr miss latency
system.cpu1.dcache.StoreCondReq_avg_mshr_miss_latency::total  6040.636042                       # average StoreCondReq mshr miss latency
system.cpu1.dcache.StoreCondFailReq_miss_latency::.cpu1.data      2709500                       # number of StoreCondFailReq miss cycles
system.cpu1.dcache.StoreCondFailReq_miss_latency::total      2709500                       # number of StoreCondFailReq miss cycles
system.cpu1.dcache.StoreCondFailReq_avg_miss_latency::.cpu1.data          inf                       # average StoreCondFailReq miss latency
system.cpu1.dcache.StoreCondFailReq_avg_miss_latency::total          inf                       # average StoreCondFailReq miss latency
system.cpu1.dcache.StoreCondFailReq_mshr_miss_latency::.cpu1.data      2464500                       # number of StoreCondFailReq MSHR miss cycles
system.cpu1.dcache.StoreCondFailReq_mshr_miss_latency::total      2464500                       # number of StoreCondFailReq MSHR miss cycles
system.cpu1.dcache.StoreCondFailReq_avg_mshr_miss_latency::.cpu1.data          inf                       # average StoreCondFailReq mshr miss latency
system.cpu1.dcache.StoreCondFailReq_avg_mshr_miss_latency::total          inf                       # average StoreCondFailReq mshr miss latency
system.cpu1.dcache.SwapReq_hits::.cpu1.data         1109                       # number of SwapReq hits
system.cpu1.dcache.SwapReq_hits::total           1109                       # number of SwapReq hits
system.cpu1.dcache.SwapReq_misses::.cpu1.data         4305                       # number of SwapReq misses
system.cpu1.dcache.SwapReq_misses::total         4305                       # number of SwapReq misses
system.cpu1.dcache.SwapReq_miss_latency::.cpu1.data    126534500                       # number of SwapReq miss cycles
system.cpu1.dcache.SwapReq_miss_latency::total    126534500                       # number of SwapReq miss cycles
system.cpu1.dcache.SwapReq_accesses::.cpu1.data         5414                       # number of SwapReq accesses(hits+misses)
system.cpu1.dcache.SwapReq_accesses::total         5414                       # number of SwapReq accesses(hits+misses)
system.cpu1.dcache.SwapReq_miss_rate::.cpu1.data     0.795161                       # miss rate for SwapReq accesses
system.cpu1.dcache.SwapReq_miss_rate::total     0.795161                       # miss rate for SwapReq accesses
system.cpu1.dcache.SwapReq_avg_miss_latency::.cpu1.data 29392.450639                       # average SwapReq miss latency
system.cpu1.dcache.SwapReq_avg_miss_latency::total 29392.450639                       # average SwapReq miss latency
system.cpu1.dcache.SwapReq_mshr_misses::.cpu1.data         4305                       # number of SwapReq MSHR misses
system.cpu1.dcache.SwapReq_mshr_misses::total         4305                       # number of SwapReq MSHR misses
system.cpu1.dcache.SwapReq_mshr_miss_latency::.cpu1.data    122229500                       # number of SwapReq MSHR miss cycles
system.cpu1.dcache.SwapReq_mshr_miss_latency::total    122229500                       # number of SwapReq MSHR miss cycles
system.cpu1.dcache.SwapReq_mshr_miss_rate::.cpu1.data     0.795161                       # mshr miss rate for SwapReq accesses
system.cpu1.dcache.SwapReq_mshr_miss_rate::total     0.795161                       # mshr miss rate for SwapReq accesses
system.cpu1.dcache.SwapReq_avg_mshr_miss_latency::.cpu1.data 28392.450639                       # average SwapReq mshr miss latency
system.cpu1.dcache.SwapReq_avg_mshr_miss_latency::total 28392.450639                       # average SwapReq mshr miss latency
system.cpu1.dcache.tags.pwrStateResidencyTicks::UNDEFINED  75329540500                       # Cumulative time (in ticks) in various power states
system.cpu1.dcache.tags.tagsinuse           31.599167                       # Cycle average of tags in use
system.cpu1.dcache.tags.total_refs            5840903                       # Total number of references to valid blocks.
system.cpu1.dcache.tags.sampled_refs          2957256                       # Sample count of references to valid blocks.
system.cpu1.dcache.tags.avg_refs             1.975109                       # Average number of references to valid blocks.
system.cpu1.dcache.tags.warmup_cycle                0                       # Cycle when the warmup percentage was hit.
system.cpu1.dcache.tags.occ_blocks::.cpu1.data    31.599167                       # Average occupied blocks per requestor
system.cpu1.dcache.tags.occ_percent::.cpu1.data     0.987474                       # Average percentage of cache occupancy
system.cpu1.dcache.tags.occ_percent::total     0.987474                       # Average percentage of cache occupancy
system.cpu1.dcache.tags.occ_task_id_blocks::1024           25                       # Occupied blocks per task id
system.cpu1.dcache.tags.age_task_id_blocks_1024::1           25                       # Occupied blocks per task id
system.cpu1.dcache.tags.occ_task_id_percent::1024     0.781250                       # Percentage of cache occupancy per task id
system.cpu1.dcache.tags.tag_accesses         20226883                       # Number of tag accesses
system.cpu1.dcache.tags.data_accesses        20226883                       # Number of data accesses
system.cpu_clk_domain.clock                       500                       # Clock period in ticks
system.tol2bus.pwrStateResidencyTicks::UNDEFINED  75329540500                       # Cumulative time (in ticks) in various power states
system.tol2bus.trans_dist::ReadResp          11836677                       # Transaction distribution
system.tol2bus.trans_dist::ReadRespWithInvalidate           19                       # Transaction distribution
system.tol2bus.trans_dist::WritebackDirty       458784                       # Transaction distribution
system.tol2bus.trans_dist::WritebackClean     11665521                       # Transaction distribution
system.tol2bus.trans_dist::CleanEvict        15950565                       # Transaction distribution
system.tol2bus.trans_dist::UpgradeReq            8503                       # Transaction distribution
system.tol2bus.trans_dist::SCUpgradeReq          4639                       # Transaction distribution
system.tol2bus.trans_dist::UpgradeResp          13142                       # Transaction distribution
system.tol2bus.trans_dist::SCUpgradeFailReq          759                       # Transaction distribution
system.tol2bus.trans_dist::UpgradeFailResp          759                       # Transaction distribution
system.tol2bus.trans_dist::ReadExReq           114888                       # Transaction distribution
system.tol2bus.trans_dist::ReadExResp          114888                       # Transaction distribution
system.tol2bus.trans_dist::ReadCleanReq        121139                       # Transaction distribution
system.tol2bus.trans_dist::ReadSharedReq     11715558                       # Transaction distribution
system.tol2bus.pkt_count_system.cpu0.icache.mem_side::system.l2.cpu_side       219562                       # Packet count per connected master and slave (bytes)
system.tol2bus.pkt_count_system.cpu0.dcache.mem_side::system.l2.cpu_side      8902842                       # Packet count per connected master and slave (bytes)
system.tol2bus.pkt_count_system.cpu1.icache.mem_side::system.l2.cpu_side        47637                       # Packet count per connected master and slave (bytes)
system.tol2bus.pkt_count_system.cpu1.dcache.mem_side::system.l2.cpu_side      8860498                       # Packet count per connected master and slave (bytes)
system.tol2bus.pkt_count_system.cpu2.icache.mem_side::system.l2.cpu_side        47343                       # Packet count per connected master and slave (bytes)
system.tol2bus.pkt_count_system.cpu2.dcache.mem_side::system.l2.cpu_side      8838569                       # Packet count per connected master and slave (bytes)
system.tol2bus.pkt_count_system.cpu3.icache.mem_side::system.l2.cpu_side        48873                       # Packet count per connected master and slave (bytes)
system.tol2bus.pkt_count_system.cpu3.dcache.mem_side::system.l2.cpu_side      8852475                       # Packet count per connected master and slave (bytes)
system.tol2bus.pkt_count::total              35817799                       # Packet count per connected master and slave (bytes)
system.tol2bus.pkt_size_system.cpu0.icache.mem_side::system.l2.cpu_side      9367936                       # Cumulative packet size per connected master and slave (bytes)
system.tol2bus.pkt_size_system.cpu0.dcache.mem_side::system.l2.cpu_side    379462016                       # Cumulative packet size per connected master and slave (bytes)
system.tol2bus.pkt_size_system.cpu1.icache.mem_side::system.l2.cpu_side      2032512                       # Cumulative packet size per connected master and slave (bytes)
system.tol2bus.pkt_size_system.cpu1.dcache.mem_side::system.l2.cpu_side    377568704                       # Cumulative packet size per connected master and slave (bytes)
system.tol2bus.pkt_size_system.cpu2.icache.mem_side::system.l2.cpu_side      2019968                       # Cumulative packet size per connected master and slave (bytes)
system.tol2bus.pkt_size_system.cpu2.dcache.mem_side::system.l2.cpu_side    376637440                       # Cumulative packet size per connected master and slave (bytes)
system.tol2bus.pkt_size_system.cpu3.icache.mem_side::system.l2.cpu_side      2085248                       # Cumulative packet size per connected master and slave (bytes)
system.tol2bus.pkt_size_system.cpu3.dcache.mem_side::system.l2.cpu_side    377192832                       # Cumulative packet size per connected master and slave (bytes)
system.tol2bus.pkt_size::total             1526366656                       # Cumulative packet size per connected master and slave (bytes)
system.tol2bus.snoops                        16188042                       # Total snoops (count)
system.tol2bus.snoopTraffic                  14538816                       # Total snoop traffic (bytes)
system.tol2bus.snoop_fanout::samples         28115588                       # Request fanout histogram
system.tol2bus.snoop_fanout::mean            0.618888                       # Request fanout histogram
system.tol2bus.snoop_fanout::stdev           0.743755                       # Request fanout histogram
system.tol2bus.snoop_fanout::underflows             0      0.00%      0.00% # Request fanout histogram
system.tol2bus.snoop_fanout::0               14544021     51.73%     51.73% # Request fanout histogram
system.tol2bus.snoop_fanout::1               10327825     36.73%     88.46% # Request fanout histogram
system.tol2bus.snoop_fanout::2                2705373      9.62%     98.09% # Request fanout histogram
system.tol2bus.snoop_fanout::3                 491658      1.75%     99.83% # Request fanout histogram
system.tol2bus.snoop_fanout::4                  46711      0.17%    100.00% # Request fanout histogram
system.tol2bus.snoop_fanout::5                      0      0.00%    100.00% # Request fanout histogram
system.tol2bus.snoop_fanout::6                      0      0.00%    100.00% # Request fanout histogram
system.tol2bus.snoop_fanout::7                      0      0.00%    100.00% # Request fanout histogram
system.tol2bus.snoop_fanout::8                      0      0.00%    100.00% # Request fanout histogram
system.tol2bus.snoop_fanout::overflows              0      0.00%    100.00% # Request fanout histogram
system.tol2bus.snoop_fanout::min_value              0                       # Request fanout histogram
system.tol2bus.snoop_fanout::max_value              4                       # Request fanout histogram
system.tol2bus.snoop_fanout::total           28115588                       # Request fanout histogram
system.tol2bus.reqLayer0.occupancy        23870248699                       # Layer occupancy (ticks)
system.tol2bus.reqLayer0.utilization             31.7                       # Layer utilization (%)
system.tol2bus.respLayer5.occupancy        4502571766                       # Layer occupancy (ticks)
system.tol2bus.respLayer5.utilization             6.0                       # Layer utilization (%)
system.tol2bus.respLayer4.occupancy          24954151                       # Layer occupancy (ticks)
system.tol2bus.respLayer4.utilization             0.0                       # Layer utilization (%)
system.tol2bus.respLayer7.occupancy        4509542585                       # Layer occupancy (ticks)
system.tol2bus.respLayer7.utilization             6.0                       # Layer utilization (%)
system.tol2bus.respLayer6.occupancy          25760979                       # Layer occupancy (ticks)
system.tol2bus.respLayer6.utilization             0.0                       # Layer utilization (%)
system.tol2bus.respLayer1.occupancy        4529137862                       # Layer occupancy (ticks)
system.tol2bus.respLayer1.utilization             6.0                       # Layer utilization (%)
system.tol2bus.respLayer0.occupancy         109930638                       # Layer occupancy (ticks)
system.tol2bus.respLayer0.utilization             0.1                       # Layer utilization (%)
system.tol2bus.respLayer3.occupancy        4513595194                       # Layer occupancy (ticks)
system.tol2bus.respLayer3.utilization             6.0                       # Layer utilization (%)
system.tol2bus.respLayer2.occupancy          25159939                       # Layer occupancy (ticks)
system.tol2bus.respLayer2.utilization             0.0                       # Layer utilization (%)

---------- End Simulation Statistics   ----------
