Redirecting stdout to /vol1/msoyturk/gem5/results/bc/epinions.el/prefetch_IndirectMemoryPrefetcher_LIPRP/output.txt
Redirecting stderr to /vol1/msoyturk/gem5/results/bc/epinions.el/prefetch_IndirectMemoryPrefetcher_LIPRP/error.txt
gem5 Simulator System.  http://gem5.org
gem5 is copyrighted software; use the --copyright option for details.

gem5 compiled Apr 26 2020 13:32:47
gem5 started Apr 27 2020 10:34:52
gem5 executing on draco, pid 16349
command line: /vol1/msoyturk/gem5/build/RISCV/gem5.fast -re --outdir=/vol1/msoyturk/gem5/results/bc/epinions.el/prefetch_IndirectMemoryPrefetcher_LIPRP --stdout-file=output.txt --stderr-file=error.txt /vol1/msoyturk/gem5/configs/example/my_se.py -c /vol1/msoyturk/gem5/gapbs/bc -o '-f /vol1/msoyturk/gem5/gapbs/test/graphs/epinions.el' --caches --l1d_size=2kB --l1i_size=2kB --cpu-type=DerivO3CPU -n 4 --mem-size=512MB --l2cache --l2_size=4kB --l2-hwp-type=IndirectMemoryPrefetcher --l2-replacement-policy=LIPRP --l1i_mshrs=4 --l1d_mshrs=4 --l2_mshrs=20 --l1i_write_buffers=8 --l1d_write_buffers=8 --l2_write_buffers=8

info: Standard input is not a terminal, disabling listeners.
Warning: l2-hwp-type is set ( IndirectMemoryPrefetcher ), but the current l2 has a default Hardware Prefetcher of type <class 'm5.params.NullSimObject'> , using the specified by the flag option.
Global frequency set at 1000000000000 ticks per second
**** REAL SIMULATION ****
Read Time:           0.69339
Build Time:          0.08787
Graph has 75888 nodes and 508837 directed edges for degree: 6
    a                0.00010
source: 15167
    b                0.01651
    p                0.00607
Trial Time:          0.02379
    a                0.00010
source: 66430
    b                0.01686
    p                0.00620
Trial Time:          0.02430
    a                0.00010
source: 1321
    b                0.01708
    p                0.00628
Trial Time:          0.02455
    a                0.00010
source: 20546
    b                0.01649
    p                0.00608
Trial Time:          0.02381
    a                0.00010
source: 31030
    b                0.00023
    p                0.00006
Trial Time:          0.00153
    a                0.00010
source: 70363
    b                0.00020
    p                0.00003
Trial Time:          0.00147
    a                0.00010
source: 18091
    b                0.01663
    p                0.00613
Trial Time:          0.02398
    a                0.00010
source: 39112
    b                0.01691
    p                0.00631
Trial Time:          0.02446
    a                0.00010
source: 64563
    b                0.01713
    p                0.00634
Trial Time:          0.02469
    a                0.00010
source: 8459
    b                0.01642
    p                0.00606
Trial Time:          0.02373
    a                0.00010
source: 61500
    b                0.01682
    p                0.00630
Trial Time:          0.02436
    a                0.00010
source: 24539
    b                0.01736
    p                0.00640
Trial Time:          0.02499
    a                0.00010
source: 42596
    b                0.01738
    p                0.00633
Trial Time:          0.02491
    a                0.00010
source: 96
    b                0.01648
    p                0.00610
Trial Time:          0.02382
    a                0.00010
source: 23803
    b                0.01707
    p                0.00631
Trial Time:          0.02457
    a                0.00010
source: 24346
    b                0.01689
    p                0.00628
Trial Time:          0.02441
Average Time:        0.02146
Exiting @ tick 1164926154000 because exiting with last active thread context
