Redirecting stdout to /vol1/msoyturk/gem5/results/sssp/epinions.el/prefetch_TaggedPrefetcher_BIPRP/output.txt
Redirecting stderr to /vol1/msoyturk/gem5/results/sssp/epinions.el/prefetch_TaggedPrefetcher_BIPRP/error.txt
gem5 Simulator System.  http://gem5.org
gem5 is copyrighted software; use the --copyright option for details.

gem5 compiled Apr 26 2020 13:32:47
gem5 started Apr 28 2020 03:18:07
gem5 executing on draco, pid 28864
command line: /vol1/msoyturk/gem5/build/RISCV/gem5.fast -re --outdir=/vol1/msoyturk/gem5/results/sssp/epinions.el/prefetch_TaggedPrefetcher_BIPRP --stdout-file=output.txt --stderr-file=error.txt /vol1/msoyturk/gem5/configs/example/my_se.py -c /vol1/msoyturk/gem5/gapbs/sssp -o '-f /vol1/msoyturk/gem5/gapbs/test/graphs/epinions.el' --caches --l1d_size=2kB --l1i_size=2kB --cpu-type=DerivO3CPU -n 4 --mem-size=512MB --l2cache --l2_size=4kB --l2-hwp-type=TaggedPrefetcher --l2-replacement-policy=BIPRP --l1i_mshrs=4 --l1d_mshrs=4 --l2_mshrs=20 --l1i_write_buffers=8 --l1d_write_buffers=8 --l2_write_buffers=8

info: Standard input is not a terminal, disabling listeners.
Warning: l2-hwp-type is set ( TaggedPrefetcher ), but the current l2 has a default Hardware Prefetcher of type <class 'm5.params.NullSimObject'> , using the specified by the flag option.
Global frequency set at 1000000000000 ticks per second
**** REAL SIMULATION ****
Read Time:           0.53584
Build Time:          0.10638
Graph has 75888 nodes and 508837 directed edges for degree: 6
    0          1     0.03046
    8          1     0.05912
   10          1     0.08043
   12          1     0.10564
   14          1     0.04131
   16          3     0.05099
   17          3     0.04058
   18          4     0.18939
   19          5     0.18231
   20          4     0.35882
   21         10     0.32998
   22         13     0.36362
   23         19     0.32857
   24         26     0.29695
   25         31     0.51721
   26         49     0.45003
   27         75     0.47504
   28         64     0.51824
   29         81     0.38262
   30        111     0.57601
   31        105     0.57763
   32        131     0.51469
   33        154     0.61137
   34        181     0.69505
   35        188     0.81615
   36        193     0.62883
   37        231     0.72503
   38        261     0.56422
   39        263     0.46528
   40        258     0.49674
   41        295     0.57465
   42        277     0.34696
   43        326     0.60470
   44        293     0.52948
   45        297     0.38177
   46        325     0.40281
   47        349     0.42365
   48        323     0.33173
   49        326     0.28380
   50        347     0.30627
   51        346     0.32295
   52        324     0.36695
   53        334     0.25720
   54        367     0.41704
   55        359     0.29970
   56        371     0.33888
   57        349     0.21615
   58        362     0.20423
   59        362     0.22747
   60        392     0.19316
   61        335     0.18868
   62        350     0.19733
   63        337     0.16355
   64        343     0.18926
   65        384     0.15025
   66        342     0.16902
   67        328     0.14180
   68        306     0.11399
   69        386     0.17152
   70        308     0.15160
   71        333     0.14792
   72        379     0.14039
   73        369     0.13112
   74        344     0.11140
   75        337     0.10836
   76        346     0.11512
   77        313     0.09223
   78        342     0.10663
   79        319     0.09664
   80        358     0.11695
   81        301     0.09918
   82        336     0.10910
   83        331     0.09546
   84        350     0.11671
   85        307     0.08615
   86        316     0.06657
   87        315     0.09536
   88        318     0.08009
   89        304     0.09216
   90        309     0.06876
   91        290     0.06332
   92        302     0.10018
   93        297     0.08648
   94        320     0.10747
   95        316     0.07170
   96        303     0.07161
   97        324     0.08567
   98        282     0.07936
   99        281     0.07588
  100        312     0.08990
  101        280     0.08098
  102        293     0.08230
  103        285     0.06532
  104        304     0.07196
  105        280     0.08061
  106        290     0.07729
  107        306     0.08959
  108        300     0.08884
  109        284     0.06686
  110        305     0.06265
  111        292     0.05802
  112        285     0.06032
  113        306     0.06333
  114        258     0.05540
  115        295     0.07303
  116        259     0.07240
  117        276     0.07026
  118        278     0.05455
  119        314     0.08098
  120        277     0.06402
  121        261     0.04909
  122        269     0.05925
  123        295     0.05263
  124        282     0.05057
  125        282     0.06772
  126        295     0.07350
  127        263     0.05044
  128        269     0.06155
  129        258     0.05969
  130        284     0.06859
  131        278     0.06167
  132        276     0.06054
  133        262     0.09205
  134        264     0.04655
  135        255     0.05933
  136        224     0.04147
  137        230     0.04475
  138        228     0.03771
  139        260     0.04577
  140        264     0.05079
  141        265     0.05071
  142        248     0.05437
  143        248     0.05616
  144        263     0.05224
  145        275     0.04979
  146        247     0.04456
  147        267     0.05896
  148        249     0.05894
  149        277     0.05263
  150        254     0.05211
  151        275     0.04823
  152        257     0.05221
  153        246     0.04768
  154        240     0.05536
  155        246     0.04132
  156        231     0.04344
  157        234     0.04945
  158        258     0.04274
  159        218     0.03609
  160        258     0.04744
  161        224     0.03750
  162        230     0.03984
  163        269     0.04301
  164        258     0.05625
  165        236     0.04692
  166        272     0.05036
  167        240     0.05387
  168        249     0.04570
  169        232     0.03891
  170        214     0.03630
  171        234     0.05287
  172        261     0.04488
  173        211     0.04096
  174        246     0.04552
  175        256     0.04609
  176        196     0.03794
  177        254     0.04557
  178        232     0.05474
  179        215     0.02943
  180        261     0.04608
  181        258     0.04481
  182        243     0.04798
  183        226     0.05321
  184        239     0.04688
  185        215     0.04367
  186        227     0.03467
  187        238     0.03678
  188        229     0.04088
  189        226     0.03858
  190        224     0.03591
  191        219     0.03854
  192        230     0.03779
  193        229     0.04182
  194        222     0.03716
  195        204     0.04256
  196        200     0.04653
  197        230     0.03920
  198        212     0.03534
  199        211     0.03775
  200        218     0.02809
  201        206     0.04591
  202        228     0.03407
  203        223     0.03485
  204        202     0.03307
  205        232     0.03294
  206        217     0.04404
  207        230     0.03115
  208        224     0.03761
  209        221     0.03257
  210        213     0.03036
  211        203     0.03469
  212        210     0.03376
  213        226     0.03377
  214        175     0.02543
  215        197     0.04886
  216        203     0.03232
  217        196     0.03127
  218        248     0.04090
  219        190     0.03238
  220        209     0.03052
  221        206     0.03632
  222        209     0.03123
  223        203     0.04357
  224        191     0.03404
  225        211     0.04093
  226        214     0.04001
  227        230     0.03297
  228        202     0.03963
  229        206     0.03643
  230        187     0.03340
  231        190     0.03570
  232        196     0.02939
  233        204     0.03574
  234        180     0.02757
  235        216     0.02886
  236        186     0.02978
  237        222     0.04530
  238        210     0.02439
  239        206     0.03183
  240        198     0.03628
  241        187     0.03419
  242        185     0.03633
  243        184     0.03812
  244        190     0.02888
  245        201     0.02925
  246        198     0.03307
  247        221     0.03765
  248        196     0.03057
  249        187     0.02949
  250        181     0.02955
  251        198     0.02960
  252        214     0.03377
  253        195     0.03396
  254        200     0.03286
  255        199     0.02749
  256        197     0.03224
  257        193     0.02897
  258        212     0.03400
  259        211     0.03644
  260        208     0.02760
  261        169     0.02400
  262        205     0.03534
  263        190     0.03966
  264        189     0.03089
  265        194     0.02947
  266        191     0.02973
  267        211     0.03798
  268        197     0.04411
  269        172     0.02808
  270        201     0.03183
  271        190     0.03153
  272        183     0.03042
  273        194     0.03561
  274        183     0.03242
  275        189     0.03436
  276        180     0.02509
  277        179     0.02599
  278        170     0.02639
  279        178     0.03169
  280        181     0.03537
  281        175     0.03340
  282        154     0.03064
  283        152     0.02955
  284        155     0.03058
  285        170     0.03249
  286        163     0.03348
  287        163     0.03181
  288        177     0.03363
  289        130     0.02824
  290        154     0.02836
  291        119     0.02276
  292        138     0.02684
  293        127     0.02984
  294        115     0.01944
  295        103     0.01641
  296        106     0.02783
  297         99     0.02113
  298         92     0.02519
  299        111     0.02539
  300         78     0.02523
  301         92     0.02113
  302         90     0.02170
  303         96     0.02157
  304         75     0.01592
  305         93     0.01970
  306         74     0.01863
  307         85     0.01485
  308         80     0.01653
  309         80     0.01988
  310         66     0.01996
  311         70     0.03034
  312         70     0.03158
  313         63     0.03071
  314         65     0.02231
  315         62     0.02385
  316         59     0.02089
  317         52     0.01900
  318         54     0.02016
  319         56     0.02188
  320         50     0.02190
  321         55     0.01409
  322         49     0.01986
  323         59     0.02600
  324         46     0.01316
  325         58     0.02934
  326         45     0.01473
  327         54     0.02254
  328         40     0.01944
  329         44     0.02010
  330         43     0.02102
  331         50     0.01870
  332         40     0.01559
  333         42     0.01372
  334         41     0.01330
  335         35     0.01799
  336         41     0.02017
  337         44     0.01846
  338         34     0.01649
  339         42     0.02347
  340         41     0.01693
  341         46     0.01444
  342         44     0.01214
  343         34     0.01200
  344         55     0.01871
  345         48     0.01891
  346         39     0.01577
  347         32     0.01721
  348         28     0.01743
  349         34     0.01571
  350         39     0.01627
  351         31     0.01302
  352         31     0.01254
  353         31     0.01919
  354         31     0.01422
  355         39     0.01855
  356         32     0.01750
  357         27     0.01433
  358         27     0.01342
  359         41     0.01686
  360         34     0.01409
  361         28     0.01188
  362         25     0.02058
  363         29     0.00965
  364         21     0.01076
  365         32     0.01524
  366         26     0.01075
  367         24     0.01426
  368         28     0.01289
  369         21     0.00908
  370         33     0.01894
  371         31     0.01416
  372         15     0.01047
  373         22     0.01614
  374         21     0.01079
  375         22     0.01159
  376         19     0.01572
  377         34     0.01856
  378         19     0.01043
  379         22     0.01084
  380         21     0.01496
  381         28     0.01442
  382         26     0.00913
  383         21     0.01127
  384         36     0.02176
  385         20     0.01204
  386         31     0.01534
  387         26     0.01490
  388         25     0.02409
  389         18     0.01239
  390         17     0.00941
  391         15     0.00754
  392         20     0.01325
  393         16     0.01269
  394         20     0.00991
  395         24     0.01256
  396         17     0.01253
  397         23     0.01037
  398         23     0.01257
  399         22     0.01481
  400         20     0.01785
  401         23     0.01598
  402         23     0.01129
  403         19     0.01465
  404         13     0.01249
  405         24     0.01149
  406         13     0.00768
  407         13     0.00997
  408         15     0.01214
  409         12     0.00837
  410         14     0.01309
  411         13     0.01077
  412         22     0.01233
  413         14     0.00911
  414         17     0.01060
  415         15     0.01150
  416         18     0.01091
  417         15     0.00806
  418         12     0.01604
  419         21     0.01294
  420         22     0.00894
  421          9     0.00725
  422         15     0.01202
  423         15     0.01110
  424         16     0.01215
  425         17     0.01078
  426         23     0.01302
  427         15     0.00824
  428         23     0.01373
  429         10     0.00848
  430         26     0.00980
  431          8     0.00721
  432         12     0.01322
  433         15     0.01048
  434         19     0.01538
  435         13     0.01064
  436         13     0.00944
  437          8     0.00693
  438         17     0.01037
  439          6     0.01309
  440         10     0.01281
  441         18     0.00847
  442         15     0.01109
  443         10     0.00755
  444         19     0.01107
  445         15     0.00800
  446         10     0.00700
  447         15     0.00893
  448         12     0.01402
  449         14     0.01146
  450         16     0.01041
  451         12     0.00957
  452         12     0.00765
  453          8     0.00720
  454         10     0.00687
  455          9     0.00717
  456          9     0.00990
  457         13     0.00722
  458          8     0.00661
  459          6     0.01090
  460         15     0.00847
  461         17     0.01112
  462          9     0.01389
  463         11     0.00785
  464          8     0.00752
  465         14     0.00865
  466         10     0.00718
  467          5     0.00612
  468         11     0.00740
  469         13     0.01024
  470         14     0.01409
  471          8     0.00884
  472         11     0.00724
  473          6     0.00657
  474          9     0.01240
  475         10     0.01439
  476          9     0.00729
  477          6     0.01113
  478         11     0.00761
  479          9     0.00877
  480          6     0.00901
  481          3     0.00567
  482         12     0.01400
  483         10     0.00842
  484          5     0.00629
  485          7     0.00688
  486          4     0.00935
  487          2     0.01019
  488          5     0.01251
  489          7     0.00678
  490         10     0.00716
  491          4     0.00615
  492          7     0.01670
  493          8     0.00651
  494          8     0.00693
  495          3     0.00920
  496          9     0.01241
  497          6     0.00775
  498         11     0.00771
  499          2     0.00566
  500          3     0.00607
  501          4     0.00633
  502          7     0.01044
  503          8     0.00716
  504          2     0.00752
  505          6     0.00617
  506          9     0.00818
  507         10     0.00715
  508         10     0.00752
  509          6     0.00637
  510          5     0.00656
  511          5     0.00637
  512          6     0.00632
  513          4     0.00599
  514          3     0.00621
  515          9     0.00677
  516          2     0.00812
  517          6     0.00669
  518          5     0.00935
  519          1     0.00588
  520          2     0.00634
  521          7     0.01001
  522          6     0.00668
  523          6     0.00672
  524          2     0.00559
  525          4     0.00586
  526          3     0.00809
  527          2     0.00615
  528          5     0.00999
  529          3     0.00604
  530          4     0.01080
  531          3     0.00596
  532          6     0.00631
  533          6     0.00627
  534          2     0.00597
  535          4     0.00624
  536          3     0.00579
  537          3     0.00816
  538          3     0.00597
  539          2     0.00821
  540          7     0.00633
  541          3     0.00575
  542          5     0.00605
  543          4     0.01290
  544          4     0.00589
  546          4     0.00854
  547          3     0.00659
  548          7     0.00890
  549          3     0.00588
  550          3     0.00594
  551          3     0.00627
  552          3     0.00804
  553          2     0.00813
  555          2     0.00614
  556          1     0.00560
  557          1     0.00565
  558          6     0.00633
  559          3     0.00551
  560          2     0.00584
  561          4     0.00600
  562          2     0.00599
  563          4     0.00893
  564          4     0.00635
  565          1     0.00568
  566          2     0.00547
  567          1     0.00530
  568          1     0.00554
  569          2     0.00560
  570          4     0.00597
  571          1     0.00495
  572          1     0.00888
  573          1     0.00916
  574          2     0.00573
  576          2     0.00666
  577          2     0.00548
  578          3     0.00580
  579          1     0.00579
  580          4     0.00618
  581          1     0.00596
  582          5     0.00664
  584          3     0.01003
  585          2     0.00563
  586          2     0.00674
  587          1     0.00543
  588          1     0.00574
  589          2     0.00587
  590          2     0.00562
  591          2     0.00589
  592          2     0.00524
  593          3     0.00535
  595          1     0.00571
  596          4     0.00601
  599          1     0.00531
  600          2     0.00557
  601          2     0.00570
  602          3     0.00588
  604          2     0.00576
  605          3     0.00822
  606          1     0.00564
  607          2     0.00554
  608          1     0.00541
  610          1     0.00586
  611          4     0.00834
  612          2     0.00572
  613          1     0.00540
  614          2     0.00563
  616          1     0.00540
  619          1     0.00562
  620          2     0.01386
  622          4     0.00954
  623          3     0.00583
  624          2     0.00561
  625          4     0.00854
  627          1     0.00583
  628          1     0.00557
  631          1     0.00515
  632          1     0.00549
  634          1     0.00556
  635          1     0.00549
  636          3     0.01229
  637          3     0.00632
  639          3     0.00568
  640          2     0.00568
  641          1     0.00524
  643          1     0.00577
  644          1     0.00829
  646          1     0.00542
  647          1     0.00572
  648          1     0.00572
  649          2     0.00780
  650          3     0.00595
  652          2     0.00561
  653          2     0.00536
  654          1     0.00560
  655          2     0.00913
  656          1     0.00802
  657          1     0.00591
  658          1     0.00547
  659          1     0.00564
  660          1     0.00532
  661          2     0.00602
  666          1     0.00552
  667          1     0.00551
  668          1     0.00550
  672          1     0.00555
  676          1     0.00560
  679          1     0.00573
  682          1     0.00547
  684          2     0.00546
  685          1     0.00574
  686          1     0.00586
  690          1     0.00558
  691          1     0.00528
  693          1     0.00563
  695          1     0.00525
  696          1     0.00812
  697          1     0.00596
  698          1     0.00598
  700          1     0.00513
  702          1     0.00552
  705          1     0.00551
  706          1     0.00560
  707          2     0.00766
  708          1     0.00562
  715          2     0.00535
  718          1     0.00568
  721          1     0.00566
  724          1     0.00506
  731          1     0.00527
  735          1     0.00528
  737          2     0.00550
  738          1     0.00526
  739          1     0.00572
  762          1     0.00547
  766          1     0.00570
  777          1     0.00817
  780          1     0.00874
  782          1     0.00559
  786          1     0.00572
  788          1     0.00512
  790          1     0.00739
  791          1     0.00558
  796          1     0.00505
  797          1     0.00578
  806          1     0.00549
  821          1     0.00538
  825          1     0.00588
  837          2     0.00585
  843          1     0.00533
  844          1     0.00510
  851          1     0.00585
  872          1     0.00567
  873          1     0.00587
  880          1     0.01128
  883          1     0.00580
  889          1     0.00557
  890          1     0.00581
  902          1     0.00570
  931          1     0.00592
 1072          1     0.00553
took 689 iterations
Trial Time:          0.04715
    0          1     0.02253
  155          1     0.03659
  182          1     0.01451
  186          1     0.01070
  193          1     0.01685
  206          1     0.03963
  212          1     0.07323
  213          1     0.01097
  219          1     0.00595
  222          1     0.00586
  223          1     0.00619
  229          1     0.01264
  231          1     0.03997
  232          2     0.09578
  233          4     0.07322
  234          5     0.09851
  235          5     0.10236
  236          5     0.14647
  237          7     0.38246
  238          3     0.10482
  239         12     0.36877
  240          8     0.16867
  241         17     0.45459
  242         20     0.25376
  243         19     0.27140
  244         34     0.35147
  245         45     0.51874
  246         61     0.53922
  247         68     0.62336
  248         97     0.47434
  249        112     0.53814
  250        128     0.70135
  251        151     0.81153
  252        171     0.56315
  253        168     0.40970
  254        218     0.83926
  255        201     0.66647
  256        236     0.52597
  257        243     0.47535
  258        245     0.53452
  259        297     0.43902
  260        284     0.45274
  261        289     0.49144
  262        310     0.52282
  263        308     0.39985
  264        302     0.37071
  265        328     0.49490
  266        319     0.36078
  267        327     0.32035
  268        347     0.34521
  269        361     0.31379
  270        334     0.27755
  271        374     0.47133
  272        343     0.26787
  273        336     0.26821
  274        363     0.21663
  275        357     0.30357
  276        373     0.25256
  277        372     0.24209
  278        340     0.20114
  279        376     0.27676
  280        410     0.20970
  281        344     0.18159
  282        367     0.16788
  283        389     0.20123
  284        322     0.14302
  285        347     0.16899
  286        337     0.11370
  287        347     0.15202
  288        335     0.14739
  289        321     0.12087
  290        335     0.13574
  291        340     0.12931
  292        338     0.11214
  293        361     0.10829
  294        356     0.13092
  295        331     0.11327
  296        359     0.10587
  297        352     0.11217
  298        332     0.13824
  299        331     0.11908
  300        299     0.09401
  301        323     0.09981
  302        328     0.08985
  303        295     0.08284
  304        328     0.10184
  305        296     0.07447
  306        306     0.10516
  307        335     0.09333
  308        307     0.09796
  309        320     0.09231
  310        296     0.07400
  311        294     0.08585
  312        300     0.09012
  313        322     0.08097
  314        266     0.07446
  315        320     0.08906
  316        291     0.08533
  317        306     0.07495
  318        301     0.08373
  319        289     0.09858
  320        263     0.07506
  321        283     0.08116
  322        313     0.07953
  323        290     0.07532
  324        297     0.08608
  325        320     0.08919
  326        289     0.06197
  327        315     0.06494
  328        309     0.07847
  329        264     0.05604
  330        249     0.07151
  331        284     0.05691
  332        276     0.04835
  333        292     0.06187
  334        275     0.06827
  335        312     0.07749
  336        279     0.07992
  337        287     0.06122
  338        260     0.05508
  339        237     0.06201
  340        287     0.05269
  341        296     0.06053
  342        269     0.05952
  343        272     0.06190
  344        268     0.05864
  345        283     0.06918
  346        253     0.04907
  347        288     0.05945
  348        256     0.07487
  349        258     0.09474
  350        279     0.06375
  351        272     0.05371
  352        260     0.05869
  353        276     0.06115
  354        255     0.03978
  355        265     0.04639
  356        249     0.04959
  357        247     0.06361
  358        264     0.05453
  359        261     0.04981
  360        258     0.04719
  361        253     0.05141
  362        256     0.03633
  363        248     0.04680
  364        211     0.04127
  365        281     0.07098
  366        247     0.05591
  367        244     0.05329
  368        260     0.04769
  369        272     0.05432
  370        286     0.06110
  371        235     0.03842
  372        273     0.03681
  373        253     0.05541
  374        259     0.04452
  375        238     0.04775
  376        244     0.03792
  377        230     0.04253
  378        254     0.04747
  379        229     0.04591
  380        212     0.03258
  381        265     0.03603
  382        249     0.05210
  383        237     0.04409
  384        253     0.05461
  385        233     0.03578
  386        264     0.03790
  387        237     0.04744
  388        233     0.04370
  389        245     0.04268
  390        234     0.04412
  391        242     0.03744
  392        233     0.04759
  393        248     0.03743
  394        237     0.03877
  395        293     0.04631
  396        227     0.05578
  397        240     0.04520
  398        226     0.03282
  399        241     0.03805
  400        237     0.04577
  401        248     0.05883
  402        243     0.03318
  403        222     0.04487
  404        219     0.02983
  405        233     0.04034
  406        229     0.04196
  407        226     0.03907
  408        240     0.05345
  409        213     0.03600
  410        211     0.04150
  411        224     0.03905
  412        220     0.03793
  413        228     0.03516
  414        225     0.04342
  415        197     0.04277
  416        227     0.03774
  417        208     0.03454
  418        210     0.03134
  419        219     0.03823
  420        215     0.03205
  421        215     0.03649
  422        243     0.04744
  423        222     0.02721
  424        229     0.03066
  425        212     0.04281
  426        230     0.03825
  427        203     0.02522
  428        220     0.03662
  429        231     0.03031
  430        191     0.03269
  431        200     0.03147
  432        238     0.04447
  433        221     0.03308
  434        188     0.03383
  435        211     0.03392
  436        202     0.03385
  437        209     0.03889
  438        196     0.03811
  439        226     0.03410
  440        209     0.03723
  441        216     0.03939
  442        190     0.03473
  443        209     0.02988
  444        219     0.03731
  445        195     0.05031
  446        195     0.03097
  447        196     0.03718
  448        228     0.03989
  449        176     0.02803
  450        198     0.03667
  451        214     0.04074
  452        193     0.02668
  453        188     0.03168
  454        199     0.03054
  455        188     0.03184
  456        208     0.03585
  457        194     0.02368
  458        214     0.03184
  459        199     0.03439
  460        217     0.02673
  461        202     0.03950
  462        185     0.03035
  463        186     0.02876
  464        203     0.02249
  465        171     0.04057
  466        193     0.02993
  467        187     0.03254
  468        208     0.02829
  469        203     0.03055
  470        187     0.03132
  471        210     0.03777
  472        194     0.03401
  473        212     0.02313
  474        214     0.03469
  475        181     0.02860
  476        193     0.03249
  477        207     0.03574
  478        171     0.03044
  479        179     0.03429
  480        196     0.04306
  481        216     0.03298
  482        166     0.02797
  483        203     0.03760
  484        181     0.03445
  485        196     0.03395
  486        195     0.03616
  487        205     0.02714
  488        198     0.03140
  489        174     0.03536
  490        198     0.03361
  491        191     0.03463
  492        206     0.02598
  493        173     0.03562
  494        166     0.02249
  495        180     0.02778
  496        180     0.02363
  497        165     0.02961
  498        169     0.03120
  499        186     0.03387
  500        198     0.04158
  501        184     0.03227
  502        150     0.03042
  503        177     0.03019
  504        143     0.02498
  505        151     0.03138
  506        149     0.04380
  507        138     0.03277
  508        129     0.02357
  509        146     0.02627
  510        132     0.02492
  511        132     0.02394
  512        123     0.02691
  513        114     0.02416
  514        116     0.02170
  515        111     0.02558
  516        114     0.02841
  517        104     0.01998
  518         98     0.02186
  519         89     0.02063
  520         87     0.01810
  521         87     0.02916
  522         89     0.02006
  523         92     0.02013
  524         88     0.01531
  525         70     0.02062
  526         76     0.02111
  527         64     0.01936
  528         74     0.02245
  529         72     0.02098
  530         81     0.01574
  531         66     0.01931
  532         64     0.02284
  533         61     0.02768
  534         63     0.02449
  535         58     0.02609
  536         60     0.01810
  537         59     0.02328
  538         44     0.01489
  539         57     0.01597
  540         43     0.02113
  541         53     0.03229
  542         42     0.01187
  543         48     0.02540
  544         52     0.02261
  545         43     0.02091
  546         48     0.01412
  547         33     0.01528
  548         59     0.01775
  549         41     0.01578
  550         46     0.01549
  551         41     0.02032
  552         36     0.01469
  553         41     0.01979
  554         44     0.02120
  555         47     0.01544
  556         48     0.01738
  557         32     0.01465
  558         38     0.01723
  559         47     0.01912
  560         38     0.01419
  561         34     0.02050
  562         46     0.01683
  563         45     0.01262
  564         39     0.02253
  565         38     0.01809
  566         32     0.01947
  567         37     0.01686
  568         33     0.01770
  569         28     0.01050
  570         41     0.01524
  571         25     0.01356
  572         27     0.01544
  573         30     0.01175
  574         29     0.01795
  575         28     0.01231
  576         35     0.02219
  577         25     0.01012
  578         36     0.01864
  579         30     0.01414
  580         30     0.01083
  581         36     0.01909
  582         33     0.01891
  583         43     0.01585
  584         31     0.01382
  585         27     0.01475
  586         22     0.00886
  587         21     0.01230
  588         23     0.01394
  589         23     0.01531
  590         24     0.01113
  591         22     0.01098
  592         29     0.01428
  593         14     0.01038
  594         33     0.01380
  595         21     0.01470
  596         19     0.01256
  597         20     0.01395
  598         19     0.01402
  599         33     0.01420
  600         22     0.01145
  601         26     0.02488
  602         23     0.01683
  603         20     0.00886
  604         20     0.01520
  605         31     0.01269
  606         11     0.01148
  607         29     0.01724
  608         24     0.00943
  609         23     0.02020
  610         20     0.00887
  611         14     0.01175
  612         31     0.01593
  613         17     0.01180
  614         22     0.00927
  615         18     0.01179
  616         20     0.01664
  617         21     0.00948
  618         18     0.01247
  619         19     0.01697
  620         17     0.01346
  621         23     0.01487
  622         19     0.01442
  623         16     0.00834
  624         15     0.01364
  625         19     0.01722
  626         20     0.00894
  627         18     0.01350
  628         16     0.01241
  629         19     0.01539
  630         11     0.00941
  631         13     0.00818
  632         12     0.00924
  633         19     0.01294
  634         17     0.01121
  635         14     0.00815
  636         15     0.01047
  637         21     0.01173
  638         19     0.01698
  639          9     0.00702
  640         16     0.00919
  641         13     0.00760
  642         22     0.00929
  643         18     0.01726
  644         12     0.00758
  645         17     0.01045
  646         23     0.01399
  647         12     0.01210
  648         15     0.00828
  649         16     0.00837
  650         14     0.00799
  651         15     0.01051
  652         15     0.01083
  653         12     0.01412
  654         16     0.01287
  655         14     0.01222
  656         16     0.01394
  657          9     0.01051
  658         14     0.00811
  659          7     0.00678
  660          6     0.00646
  661          9     0.00929
  662         15     0.01311
  663         15     0.01243
  664         19     0.00867
  665         15     0.00865
  666         15     0.00821
  667          5     0.00890
  668         12     0.00855
  669          9     0.01155
  670         11     0.01198
  671         12     0.01024
  672         14     0.01073
  673         15     0.01014
  674         13     0.00990
  675         19     0.01336
  676          6     0.00652
  677          9     0.00673
  678         12     0.00882
  679         13     0.01144
  680         12     0.00877
  681          6     0.00619
  682          4     0.00673
  683         10     0.01590
  684          8     0.00756
  685         11     0.00726
  686         10     0.00774
  687         10     0.00688
  688         11     0.00684
  689         22     0.01517
  690          9     0.00975
  691         12     0.01171
  692          6     0.00773
  693          5     0.00610
  694         17     0.01515
  695          6     0.01117
  696          5     0.00658
  697          8     0.00705
  698          3     0.00632
  699         12     0.01218
  700          3     0.00631
  701          7     0.00686
  702          6     0.00716
  703          9     0.01169
  704          7     0.00991
  705          6     0.00627
  706          7     0.01471
  707          5     0.00656
  708          6     0.01260
  709          7     0.00928
  710          8     0.00810
  711          8     0.00659
  712          7     0.00686
  713          4     0.01618
  714          6     0.00653
  715          6     0.00643
  716          4     0.01284
  717          7     0.00881
  718          4     0.00662
  719         13     0.00932
  720          7     0.00676
  721          8     0.00633
  722          8     0.00989
  723          6     0.00634
  724          8     0.00711
  725          3     0.00950
  726          8     0.00695
  727          3     0.00630
  728          5     0.00623
  729          3     0.00572
  730          3     0.00875
  731          6     0.00626
  732          7     0.00666
  733          5     0.00590
  734          7     0.00663
  735          7     0.00669
  736          7     0.00832
  737          2     0.00575
  738          5     0.00645
  739          4     0.00620
  740          3     0.00569
  741          5     0.00572
  742          3     0.00914
  743          2     0.00558
  744          4     0.00643
  745          2     0.00587
  746          3     0.00599
  747          8     0.00941
  748          2     0.00550
  749          5     0.00637
  750          4     0.00619
  751          3     0.00863
  752          2     0.00582
  753          4     0.00569
  754          1     0.00592
  755          4     0.00596
  756          3     0.00959
  757          4     0.00633
  759          6     0.00914
  760          1     0.00534
  761          6     0.00930
  762          4     0.00601
  763          3     0.00615
  764          2     0.00595
  765          4     0.01162
  766          4     0.00558
  767          5     0.01495
  768          2     0.00526
  769          5     0.00713
  770          2     0.00547
  771          6     0.01134
  772          3     0.00607
  773          3     0.00558
  774          2     0.00579
  775          2     0.00603
  776          4     0.00640
  777          4     0.00593
  779          1     0.00517
  780          4     0.00605
  781          2     0.00780
  782          3     0.00609
  783          2     0.00558
  785          2     0.00715
  786          1     0.00509
  787          2     0.00543
  788          3     0.00584
  790          1     0.00540
  791          2     0.00578
  792          3     0.00837
  794          3     0.01105
  795          3     0.00565
  796          2     0.00543
  797          2     0.00687
  798          1     0.00542
  799          3     0.00589
  800          4     0.01177
  801          3     0.00556
  802          1     0.00522
  803          2     0.00542
  804          1     0.00601
  805          3     0.00590
  806          1     0.00539
  807          3     0.00609
  809          3     0.00551
  810          1     0.00566
  811          3     0.00555
  812          2     0.00584
  813          4     0.00570
  814          2     0.00545
  815          1     0.00771
  816          1     0.00588
  819          2     0.00555
  821          1     0.00552
  822          2     0.00580
  823          3     0.00590
  824          2     0.00547
  826          5     0.01409
  827          1     0.00543
  828          2     0.00554
  829          2     0.00514
  830          2     0.00549
  831          2     0.00804
  833          1     0.00562
  835          1     0.00504
  836          1     0.00525
  839          1     0.00512
  841          3     0.00609
  842          1     0.00583
  843          3     0.00925
  844          2     0.00602
  845          3     0.00874
  846          2     0.00918
  847          1     0.00562
  848          1     0.00591
  849          1     0.00569
  850          5     0.01067
  852          1     0.00843
  853          2     0.00588
  856          1     0.00537
  857          1     0.00549
  858          2     0.00549
  861          1     0.00579
  862          1     0.00602
  864          4     0.00529
  865          1     0.00532
  866          3     0.00901
  870          2     0.00792
  871          3     0.00575
  872          2     0.00539
  873          1     0.00581
  876          2     0.00950
  877          3     0.00561
  879          1     0.00547
  882          3     0.00555
  885          1     0.00551
  887          2     0.00545
  894          1     0.00557
  901          1     0.00512
  902          1     0.00894
  903          2     0.00572
  907          2     0.00525
  909          1     0.00554
  911          1     0.00522
  912          1     0.00512
  913          1     0.00558
  915          1     0.00580
  916          1     0.00503
  917          1     0.00511
  918          1     0.00556
  922          1     0.00566
  924          1     0.00539
  925          1     0.00640
  927          2     0.00544
  935          1     0.00538
  936          1     0.00529
  938          1     0.00502
  942          2     0.00588
  951          1     0.00541
  952          1     0.00495
  953          1     0.00566
  955          1     0.00562
  956          1     0.00560
  957          1     0.00540
  972          1     0.00563
  980          1     0.00547
  995          1     0.00900
  996          1     0.00681
 1005          1     0.00883
 1006          1     0.00547
 1009          1     0.00581
 1011          1     0.00530
 1012          1     0.00538
 1015          1     0.00545
 1018          1     0.00560
 1019          1     0.00572
 1042          1     0.00553
 1043          2     0.00558
 1049          1     0.00537
 1052          1     0.00541
 1058          1     0.00549
 1062          1     0.00595
 1086          2     0.03794
 1089          1     0.00576
 1094          1     0.00528
 1105          1     0.00519
 1112          1     0.00539
 1123          1     0.00534
 1137          1     0.00610
 1278          1     0.00552
took 690 iterations
Trial Time:          0.04728
    0          1     0.05578
    4          2     0.17037
    5          1     0.02645
    7          1     0.08320
    8          5     0.16185
    9          1     0.06979
   11          4     0.20906
   12          4     0.13403
   13          6     0.17382
   14          6     0.28825
   15         13     0.21297
   16          9     0.31831
   17         17     0.25679
   18         22     0.36973
   19         23     0.39165
   20         31     0.42358
   21         41     0.34960
   22         52     0.93228
   23         83     0.60490
   24        105     0.78640
   25        121     0.53460
   26        123     0.52597
   27        182     0.55283
   28        167     0.48950
   29        199     0.71236
   30        230     0.53888
   31        207     0.40198
   32        241     0.60385
   33        234     0.90303
   34        307     0.52443
   35        333     0.66505
   36        281     0.48381
   37        311     0.45079
   38        320     0.50654
   39        315     0.45946
   40        335     0.30071
   41        315     0.47924
   42        359     0.35521
   43        358     0.34559
   44        356     0.34477
   45        340     0.30080
   46        380     0.32271
   47        332     0.27851
   48        361     0.25794
   49        349     0.24392
   50        317     0.19862
   51        339     0.29218
   52        375     0.23950
   53        347     0.19962
   54        362     0.23765
   55        353     0.17357
   56        343     0.21802
   57        366     0.17805
   58        357     0.19132
   59        372     0.18954
   60        333     0.14591
   61        354     0.18593
   62        348     0.14313
   63        371     0.14275
   64        330     0.10292
   65        306     0.13973
   66        344     0.13492
   67        341     0.13619
   68        333     0.11234
   69        333     0.11819
   70        319     0.11864
   71        335     0.10144
   72        298     0.09434
   73        323     0.11792
   74        327     0.11719
   75        336     0.10228
   76        316     0.10441
   77        339     0.10184
   78        311     0.10373
   79        348     0.12448
   80        314     0.09220
   81        317     0.09304
   82        312     0.08955
   83        311     0.08221
   84        285     0.07632
   85        319     0.09665
   86        315     0.07735
   87        296     0.07590
   88        311     0.07501
   89        275     0.07196
   90        287     0.08414
   91        317     0.09077
   92        286     0.06804
   93        289     0.08986
   94        311     0.09036
   95        308     0.08949
   96        277     0.08509
   97        317     0.08150
   98        290     0.07403
   99        304     0.06152
  100        282     0.07415
  101        296     0.07530
  102        279     0.07913
  103        276     0.06607
  104        306     0.07281
  105        267     0.05796
  106        282     0.05728
  107        291     0.09166
  108        290     0.07924
  109        265     0.06157
  110        301     0.05839
  111        299     0.06637
  112        267     0.06891
  113        293     0.06803
  114        319     0.08034
  115        303     0.05898
  116        274     0.04954
  117        294     0.06656
  118        291     0.06776
  119        267     0.06019
  120        270     0.04946
  121        270     0.07136
  122        256     0.05220
  123        259     0.05607
  124        281     0.04412
  125        242     0.04537
  126        298     0.06907
  127        256     0.06273
  128        248     0.05328
  129        259     0.05492
  130        259     0.06899
  131        277     0.04329
  132        243     0.05119
  133        247     0.05435
  134        259     0.07456
  135        250     0.05536
  136        265     0.06631
  137        235     0.04527
  138        222     0.03585
  139        234     0.05933
  140        270     0.05859
  141        261     0.04413
  142        252     0.04957
  143        229     0.05682
  144        278     0.04383
  145        262     0.04864
  146        224     0.03818
  147        252     0.05834
  148        258     0.03829
  149        263     0.05699
  150        246     0.05971
  151        227     0.03889
  152        264     0.04109
  153        225     0.03149
  154        236     0.04440
  155        257     0.05590
  156        242     0.04226
  157        246     0.04031
  158        231     0.03005
  159        266     0.04317
  160        250     0.04340
  161        241     0.03744
  162        250     0.05010
  163        250     0.05088
  164        229     0.04077
  165        238     0.03234
  166        231     0.03899
  167        219     0.03848
  168        241     0.03461
  169        225     0.06162
  170        250     0.04613
  171        229     0.05086
  172        209     0.03494
  173        257     0.04668
  174        246     0.03848
  175        237     0.03363
  176        247     0.03782
  177        263     0.03732
  178        235     0.03881
  179        252     0.05233
  180        239     0.04151
  181        230     0.06154
  182        217     0.03898
  183        223     0.03478
  184        218     0.03462
  185        220     0.03952
  186        237     0.03857
  187        239     0.03879
  188        225     0.03484
  189        202     0.03314
  190        236     0.04076
  191        236     0.04267
  192        223     0.04636
  193        187     0.03363
  194        181     0.04180
  195        208     0.03527
  196        208     0.03270
  197        214     0.03870
  198        234     0.03497
  199        211     0.03030
  200        212     0.04206
  201        229     0.03269
  202        215     0.03266
  203        237     0.04280
  204        188     0.02822
  205        218     0.03630
  206        209     0.03608
  207        203     0.03617
  208        206     0.02502
  209        207     0.03878
  210        222     0.04144
  211        202     0.03028
  212        204     0.03729
  213        218     0.03782
  214        209     0.03468
  215        198     0.03587
  216        200     0.03000
  217        195     0.03970
  218        205     0.03935
  219        187     0.03318
  220        238     0.03642
  221        231     0.03656
  222        195     0.04172
  223        177     0.03267
  224        193     0.03481
  225        199     0.04959
  226        170     0.03512
  227        215     0.03505
  228        204     0.03456
  229        211     0.02942
  230        210     0.02911
  231        194     0.03414
  232        195     0.03694
  233        194     0.03291
  234        229     0.02994
  235        193     0.04386
  236        211     0.02787
  237        218     0.03413
  238        200     0.03218
  239        180     0.02889
  240        182     0.03443
  241        182     0.03058
  242        183     0.02557
  243        186     0.03950
  244        199     0.02355
  245        172     0.02777
  246        220     0.03155
  247        190     0.02699
  248        181     0.03152
  249        203     0.02505
  250        191     0.02644
  251        220     0.04454
  252        206     0.03211
  253        200     0.02793
  254        215     0.03884
  255        188     0.04090
  256        187     0.02743
  257        194     0.03127
  258        203     0.03032
  259        217     0.03257
  260        191     0.02656
  261        182     0.03867
  262        186     0.03437
  263        200     0.03705
  264        179     0.03315
  265        175     0.02829
  266        210     0.03671
  267        162     0.03592
  268        193     0.02723
  269        191     0.02833
  270        172     0.03185
  271        213     0.02842
  272        185     0.02594
  273        185     0.04079
  274        184     0.02378
  275        165     0.03855
  276        157     0.03071
  277        165     0.02657
  278        149     0.03249
  279        168     0.03371
  280        131     0.02141
  281        152     0.02091
  282        169     0.02972
  283        160     0.03809
  284        150     0.02354
  285        130     0.02949
  286        123     0.02420
  287        132     0.02226
  288        127     0.02755
  289        105     0.02683
  290        110     0.03308
  291         98     0.01685
  292         90     0.01874
  293         99     0.02522
  294        115     0.02252
  295        108     0.02544
  296         86     0.02038
  297         77     0.01819
  298         74     0.01451
  299         87     0.01851
  300         82     0.02674
  301         75     0.01955
  302         72     0.01929
  303         77     0.01788
  304         71     0.01597
  305         56     0.01761
  306         66     0.01656
  307         69     0.02139
  308         54     0.02364
  309         63     0.02763
  310         63     0.02117
  311         79     0.03236
  312         58     0.02375
  313         46     0.02462
  314         64     0.02516
  315         45     0.01921
  316         56     0.01710
  317         42     0.01520
  318         44     0.01881
  319         45     0.01536
  320         41     0.01660
  321         39     0.01387
  322         33     0.01647
  323         51     0.01931
  324         51     0.01857
  325         47     0.01874
  326         44     0.02040
  327         50     0.01995
  328         50     0.01867
  329         38     0.02118
  330         38     0.01640
  331         39     0.01483
  332         37     0.01349
  333         45     0.01686
  334         39     0.01550
  335         45     0.02724
  336         33     0.01600
  337         46     0.02190
  338         43     0.01762
  339         37     0.01914
  340         42     0.02030
  341         41     0.01279
  342         44     0.01682
  343         27     0.01872
  344         25     0.00918
  345         38     0.01288
  346         30     0.01426
  347         40     0.02608
  348         29     0.00973
  349         21     0.01158
  350         39     0.01825
  351         31     0.02072
  352         27     0.01176
  353         21     0.01690
  354         35     0.02019
  355         35     0.01722
  356         32     0.01295
  357         23     0.00915
  358         27     0.01425
  359         32     0.01452
  360         32     0.01439
  361         31     0.01285
  362         22     0.01363
  363         27     0.01139
  364         23     0.01162
  365         28     0.01812
  366         19     0.01536
  367         36     0.01546
  368         29     0.01662
  369         27     0.01035
  370         19     0.01051
  371         16     0.00843
  372         20     0.01047
  373         19     0.01681
  374         20     0.01459
  375         23     0.01265
  376         18     0.01117
  377         27     0.01196
  378         30     0.02061
  379         22     0.00879
  380         17     0.01913
  381         33     0.01815
  382         30     0.02595
  383         30     0.01570
  384         24     0.01818
  385         18     0.01400
  386         16     0.00827
  387         28     0.00918
  388         17     0.01482
  389         22     0.01281
  390         20     0.01315
  391         12     0.00785
  392         19     0.01288
  393         20     0.00965
  394         26     0.01268
  395         12     0.01284
  396         11     0.01267
  397         18     0.00837
  398         21     0.01056
  399         21     0.01581
  400         17     0.01205
  401         13     0.00828
  402         14     0.00890
  403         21     0.01251
  404         16     0.01178
  405         19     0.01273
  406         10     0.00734
  407         18     0.01093
  408         13     0.00796
  409         13     0.01145
  410         14     0.00936
  411         22     0.01211
  412         17     0.01410
  413         15     0.01599
  414         22     0.01010
  415         15     0.01402
  416         18     0.00897
  417         19     0.00801
  418         14     0.01092
  419         19     0.01313
  420         10     0.00771
  421         16     0.00760
  422         11     0.00704
  423         13     0.00756
  424         25     0.01137
  425         15     0.01308
  426         17     0.01487
  427         17     0.01032
  428         11     0.01004
  429         14     0.01235
  430         11     0.01169
  431         17     0.00843
  432         14     0.00866
  433         15     0.00981
  434         17     0.01014
  435         13     0.00927
  436         20     0.02069
  437          4     0.00641
  438          9     0.01190
  439         15     0.01477
  440         12     0.01157
  441          7     0.00699
  442         13     0.01188
  443         15     0.00801
  444          7     0.00677
  445         15     0.01144
  446         12     0.00732
  447         12     0.00973
  448         15     0.00799
  449          9     0.00937
  450         14     0.00786
  451          9     0.00993
  452         13     0.00829
  453          9     0.00750
  454          9     0.00876
  455          6     0.00651
  456         12     0.01033
  457         11     0.01012
  458         18     0.00950
  459         11     0.00762
  460         14     0.00794
  461          8     0.00723
  462         13     0.00931
  463          8     0.01700
  464          9     0.00703
  465         13     0.01078
  466          7     0.00655
  467          5     0.01059
  468          9     0.00768
  469          6     0.00881
  470         10     0.00712
  471          6     0.00658
  472         15     0.01517
  473          7     0.01284
  474         14     0.01579
  475          7     0.00686
  476          9     0.00671
  477          3     0.00551
  478          5     0.00590
  479          6     0.00772
  480          7     0.00705
  481          6     0.00996
  482          4     0.00645
  483          2     0.00970
  484          7     0.00888
  485          7     0.01398
  486          8     0.00706
  487          9     0.00702
  488          6     0.00638
  489          7     0.00643
  490          4     0.00594
  491         12     0.01252
  492          4     0.00631
  493          5     0.00638
  494          7     0.01195
  495          7     0.00677
  496          7     0.01713
  497          7     0.00679
  498          7     0.00685
  499          6     0.00660
  500          7     0.00912
  501          8     0.00812
  502          3     0.00633
  503          7     0.00683
  504          7     0.00674
  505          7     0.00650
  506          2     0.00569
  507          4     0.00643
  508          5     0.00962
  509          5     0.00625
  510          2     0.00596
  511          4     0.00544
  512          4     0.00568
  513          7     0.00645
  514          4     0.00760
  515          6     0.00673
  516          4     0.00594
  517          5     0.00904
  518          2     0.00585
  519          1     0.00558
  520          2     0.00548
  521          7     0.00679
  522          4     0.00586
  523          7     0.01100
  524          2     0.00546
  525          6     0.00646
  527          2     0.00556
  528          5     0.00959
  529          2     0.00555
  530          5     0.00573
  531          6     0.00685
  532          6     0.01312
  533          3     0.00618
  534          4     0.00575
  535          3     0.00690
  536          4     0.00590
  537          2     0.00583
  538          3     0.01412
  539          3     0.00628
  540          6     0.00752
  541          2     0.00577
  542          5     0.00855
  543          4     0.00637
  544          2     0.00798
  545          4     0.00910
  546          4     0.00596
  547          2     0.00575
  548          2     0.00565
  549          2     0.00544
  550          3     0.00670
  551          4     0.00586
  553          3     0.00599
  554          4     0.00636
  556          2     0.00855
  558          3     0.00621
  559          5     0.00913
  560          3     0.00627
  561          4     0.00911
  562          1     0.00568
  563          1     0.00617
  564          2     0.00603
  565          1     0.00975
  566          5     0.00672
  567          1     0.00644
  568          1     0.00729
  569          1     0.00573
  570          1     0.00605
  571          1     0.00604
  572          1     0.00590
  573          2     0.01015
  574          1     0.00628
  575          1     0.00617
  576          1     0.00607
  577          2     0.00630
  578          3     0.00904
  579          3     0.00940
  580          1     0.00574
  582          2     0.00548
  583          4     0.00625
  584          2     0.00528
  585          1     0.00542
  586          4     0.00629
  587          1     0.00549
  588          2     0.00590
  590          2     0.00602
  591          1     0.00544
  594          3     0.00604
  595          3     0.00593
  596          1     0.00616
  597          3     0.00608
  598          1     0.00562
  599          1     0.00506
  600          4     0.00847
  601          2     0.00569
  602          4     0.00640
  604          1     0.00573
  606          2     0.00586
  607          3     0.00565
  609          4     0.01978
  610          1     0.00808
  612          1     0.00559
  614          1     0.00528
  616          1     0.00545
  617          3     0.00607
  619          3     0.00576
  621          3     0.00639
  623          2     0.00549
  624          1     0.00581
  625          1     0.00523
  626          2     0.00865
  628          1     0.00545
  629          2     0.00545
  630          2     0.00608
  631          2     0.02843
  632          2     0.00552
  633          1     0.00553
  636          2     0.01013
  637          3     0.00805
  638          1     0.00547
  639          2     0.00565
  641          3     0.00559
  642          1     0.00571
  644          2     0.00867
  647          1     0.00545
  648          3     0.00868
  649          2     0.00586
  650          1     0.00697
  652          3     0.00691
  655          1     0.01066
  656          2     0.00699
  661          1     0.00709
  662          1     0.00651
  663          1     0.00684
  665          1     0.00642
  667          2     0.00661
  673          1     0.00646
  677          1     0.00656
  679          2     0.00618
  680          1     0.00618
  681          1     0.00648
  684          1     0.00636
  685          1     0.00884
  690          1     0.00638
  691          1     0.00676
  694          1     0.00589
  695          1     0.00615
  696          1     0.00852
  697          1     0.00598
  698          1     0.00585
  699          2     0.00609
  700          1     0.00607
  703          1     0.00586
  705          1     0.00620
  713          1     0.00637
  717          1     0.00616
  718          1     0.00602
  719          1     0.00522
  721          1     0.00555
  725          1     0.00576
  726          1     0.00557
  727          1     0.00599
  732          1     0.00532
  735          1     0.00552
  739          1     0.00572
  755          1     0.00598
  758          1     0.00533
  766          1     0.00869
  776          1     0.00878
  777          1     0.00556
  779          1     0.00829
  782          1     0.00546
  785          1     0.00611
  786          1     0.00611
  792          1     0.00606
  793          1     0.00591
  795          1     0.00581
  814          1     0.00560
  825          1     0.00514
  826          1     0.00573
  832          1     0.00569
  833          1     0.00591
  836          1     0.00563
  846          1     0.00526
  869          1     0.01382
  872          2     0.00586
  873          1     0.00600
  883          1     0.00552
  884          1     0.00537
  902          1     0.00589
  920          1     0.00629
 1061          1     0.00542
took 686 iterations
Trial Time:          0.04750
    0          1     0.03957
    1          1     0.08732
    3          1     0.06780
    4          1     0.00623
    6          1     0.02169
    7          1     0.06319
    8          1     0.01805
    9          1     0.01908
   10          1     0.00917
   12          1     0.00978
   14          2     0.18296
   15          2     0.01489
   16          2     0.03957
   17          1     0.01249
   18          4     0.65699
   19          9     0.17419
   20         12     0.07981
   21          9     0.17644
   22         14     0.53871
   23         10     0.12332
   24         13     0.16262
   25         18     0.27436
   26         28     0.35728
   27         33     0.59858
   28         49     0.58009
   29         73     0.66167
   30         79     0.46656
   31        101     0.62567
   32         97     0.54754
   33        123     0.61631
   34        153     0.58110
   35        182     0.60938
   36        197     0.56959
   37        217     0.67357
   38        253     0.60124
   39        263     0.60194
   40        276     0.59642
   41        293     0.59249
   42        279     0.66498
   43        334     0.64227
   44        325     0.41899
   45        334     0.44817
   46        332     0.39844
   47        321     0.37357
   48        365     0.48781
   49        362     0.29747
   50        356     0.32674
   51        379     0.32278
   52        347     0.29983
   53        361     0.43222
   54        371     0.23901
   55        374     0.23267
   56        381     0.25237
   57        366     0.23249
   58        364     0.25295
   59        356     0.22704
   60        370     0.21283
   61        374     0.20450
   62        348     0.14957
   63        336     0.16773
   64        329     0.16265
   65        373     0.18719
   66        357     0.15044
   67        351     0.12929
   68        372     0.13032
   69        319     0.14726
   70        331     0.14911
   71        347     0.12831
   72        329     0.12839
   73        346     0.11829
   74        349     0.12145
   75        325     0.14396
   76        296     0.10001
   77        363     0.12022
   78        329     0.11775
   79        319     0.11557
   80        319     0.10539
   81        314     0.11239
   82        293     0.09274
   83        315     0.10902
   84        334     0.11260
   85        352     0.13603
   86        343     0.08602
   87        327     0.09902
   88        310     0.08463
   89        311     0.07642
   90        302     0.09383
   91        326     0.09488
   92        290     0.08617
   93        302     0.07600
   94        335     0.09291
   95        308     0.09094
   96        281     0.07568
   97        295     0.07453
   98        322     0.09548
   99        284     0.07258
  100        301     0.07271
  101        288     0.06970
  102        317     0.09025
  103        273     0.08005
  104        290     0.06951
  105        291     0.07252
  106        292     0.07972
  107        290     0.06312
  108        285     0.06808
  109        307     0.05997
  110        275     0.05700
  111        257     0.07480
  112        278     0.07159
  113        277     0.06403
  114        318     0.07536
  115        293     0.05751
  116        293     0.09094
  117        269     0.06496
  118        283     0.06054
  119        288     0.06846
  120        259     0.05602
  121        290     0.06428
  122        257     0.05701
  123        290     0.06177
  124        298     0.06528
  125        260     0.05958
  126        284     0.05030
  127        263     0.05869
  128        241     0.05035
  129        275     0.08506
  130        261     0.04747
  131        242     0.03864
  132        277     0.05647
  133        291     0.05357
  134        270     0.04871
  135        279     0.08781
  136        269     0.05389
  137        231     0.05035
  138        266     0.05126
  139        252     0.06198
  140        249     0.04211
  141        256     0.05231
  142        262     0.06595
  143        270     0.05086
  144        220     0.04794
  145        258     0.06652
  146        262     0.04732
  147        260     0.04296
  148        262     0.07176
  149        273     0.05971
  150        260     0.05554
  151        236     0.04612
  152        273     0.04333
  153        281     0.04023
  154        260     0.05750
  155        246     0.04567
  156        242     0.04486
  157        239     0.04694
  158        243     0.03619
  159        264     0.06851
  160        237     0.05963
  161        221     0.04548
  162        247     0.04496
  163        230     0.03929
  164        250     0.04405
  165        258     0.04507
  166        227     0.04297
  167        254     0.05242
  168        233     0.04616
  169        261     0.03685
  170        228     0.04675
  171        237     0.04104
  172        220     0.03401
  173        260     0.05213
  174        237     0.04461
  175        263     0.04435
  176        224     0.03405
  177        236     0.03881
  178        214     0.03683
  179        237     0.04401
  180        226     0.04154
  181        232     0.05025
  182        245     0.07236
  183        266     0.04081
  184        238     0.03653
  185        246     0.04568
  186        240     0.04115
  187        255     0.04830
  188        211     0.03897
  189        223     0.03863
  190        207     0.03564
  191        238     0.04751
  192        242     0.04344
  193        202     0.03057
  194        238     0.04125
  195        222     0.04445
  196        230     0.03558
  197        197     0.03279
  198        237     0.04020
  199        223     0.03289
  200        196     0.03284
  201        216     0.03555
  202        230     0.03432
  203        219     0.03791
  204        219     0.03440
  205        223     0.03595
  206        225     0.03100
  207        231     0.03577
  208        209     0.03278
  209        228     0.03814
  210        214     0.04019
  211        203     0.03722
  212        184     0.03547
  213        216     0.03983
  214        195     0.03327
  215        226     0.03939
  216        196     0.03509
  217        206     0.03173
  218        207     0.02677
  219        224     0.04035
  220        216     0.03390
  221        183     0.03769
  222        211     0.04862
  223        206     0.04053
  224        204     0.03011
  225        203     0.03425
  226        200     0.03567
  227        206     0.03811
  228        207     0.03639
  229        200     0.03005
  230        227     0.03814
  231        202     0.02807
  232        232     0.02873
  233        177     0.03807
  234        193     0.03844
  235        211     0.02861
  236        202     0.03217
  237        233     0.03179
  238        192     0.02744
  239        204     0.03322
  240        203     0.03878
  241        218     0.03687
  242        204     0.04480
  243        199     0.03478
  244        212     0.03379
  245        195     0.03485
  246        210     0.04160
  247        201     0.02505
  248        188     0.02917
  249        189     0.02372
  250        188     0.03352
  251        189     0.03073
  252        171     0.02631
  253        228     0.04322
  254        191     0.03316
  255        172     0.03403
  256        191     0.03688
  257        197     0.04039
  258        195     0.04254
  259        184     0.02684
  260        213     0.02952
  261        221     0.03389
  262        201     0.03279
  263        228     0.02557
  264        194     0.02910
  265        179     0.02903
  266        166     0.01915
  267        177     0.02902
  268        192     0.03020
  269        210     0.03630
  270        188     0.03687
  271        190     0.03230
  272        212     0.03267
  273        205     0.03914
  274        169     0.03293
  275        182     0.03508
  276        168     0.03209
  277        189     0.03641
  278        193     0.03298
  279        186     0.02879
  280        199     0.03368
  281        173     0.03196
  282        182     0.03571
  283        161     0.03123
  284        162     0.03098
  285        152     0.02987
  286        169     0.03052
  287        155     0.02559
  288        135     0.02929
  289        139     0.02747
  290        129     0.02305
  291        124     0.02703
  292        120     0.02635
  293        116     0.02653
  294        125     0.02929
  295        135     0.02979
  296        116     0.01684
  297        105     0.03152
  298         91     0.02077
  299        106     0.02765
  300         88     0.02620
  301         94     0.02112
  302         85     0.01889
  303         82     0.03036
  304         76     0.01731
  305         75     0.02218
  306         62     0.02044
  307         69     0.02260
  308         66     0.02080
  309         80     0.03456
  310         86     0.01860
  311         76     0.02617
  312         58     0.02782
  313         70     0.02057
  314         79     0.01733
  315         61     0.02139
  316         49     0.01631
  317         69     0.01685
  318         42     0.02098
  319         54     0.01776
  320         59     0.01357
  321         52     0.02040
  322         45     0.01842
  323         43     0.01781
  324         39     0.01273
  325         45     0.02924
  326         43     0.01875
  327         49     0.01677
  328         57     0.02348
  329         70     0.02001
  330         38     0.02194
  331         35     0.01149
  332         33     0.01570
  333         50     0.01212
  334         58     0.02302
  335         33     0.01593
  336         46     0.01929
  337         32     0.01581
  338         55     0.02225
  339         32     0.01661
  340         48     0.02363
  341         28     0.00929
  342         38     0.02524
  343         37     0.01477
  344         38     0.01868
  345         43     0.01404
  346         38     0.01653
  347         39     0.01829
  348         37     0.01093
  349         36     0.01775
  350         34     0.01567
  351         32     0.01115
  352         30     0.02065
  353         43     0.01171
  354         35     0.01892
  355         25     0.01239
  356         22     0.01463
  357         28     0.01349
  358         34     0.01844
  359         28     0.00933
  360         29     0.01375
  361         27     0.02055
  362         26     0.01010
  363         29     0.01100
  364         42     0.02249
  365         28     0.01753
  366         28     0.01472
  367         27     0.01256
  368         29     0.01115
  369         31     0.01601
  370         30     0.01966
  371         21     0.01168
  372         19     0.00922
  373         12     0.00733
  374         24     0.01263
  375         23     0.01534
  376         20     0.01203
  377         21     0.00954
  378         22     0.00876
  379         24     0.01444
  380         26     0.01218
  381         26     0.02031
  382         23     0.01305
  383         23     0.01624
  384         20     0.00861
  385         23     0.02269
  386         24     0.02142
  387         24     0.01550
  388         33     0.01912
  389         21     0.01257
  390         23     0.01359
  391         16     0.01234
  392         20     0.01726
  393         18     0.00812
  394         14     0.01210
  395         20     0.00917
  396         15     0.01129
  397         26     0.01332
  398         19     0.01853
  399         25     0.00974
  400         14     0.00865
  401         13     0.00965
  402         16     0.01499
  403         28     0.01068
  404         26     0.00985
  405         10     0.01086
  406         13     0.00887
  407         18     0.01387
  408         21     0.01598
  409         18     0.01430
  410         15     0.01296
  411         19     0.01192
  412         15     0.01074
  413         13     0.01157
  414         20     0.01204
  415         19     0.01119
  416         17     0.00819
  417         14     0.01395
  418         23     0.01862
  419         17     0.00828
  420         15     0.00815
  421         13     0.01238
  422         18     0.00842
  423         16     0.01062
  424         11     0.00847
  425         21     0.01124
  426         20     0.00942
  427         12     0.00907
  428          9     0.01349
  429         14     0.00762
  430         12     0.00727
  431         14     0.01102
  432         14     0.01138
  433         13     0.01178
  434         15     0.01531
  435         20     0.00961
  436          9     0.00946
  437         10     0.01067
  438         16     0.01188
  439         16     0.00986
  440         12     0.01133
  441         12     0.01113
  442          9     0.01069
  443         19     0.00869
  444         13     0.00755
  445         16     0.00822
  446         12     0.00912
  447         16     0.01082
  448         10     0.00924
  449          9     0.00939
  450          9     0.00665
  451         16     0.00825
  452         14     0.00751
  453         10     0.01168
  454         13     0.01323
  455         11     0.01104
  456         11     0.00725
  457          9     0.00720
  458         11     0.00717
  459         10     0.00983
  460         10     0.00708
  461          8     0.00743
  462         12     0.00782
  463         11     0.01234
  464         12     0.00778
  465         10     0.01136
  466          9     0.00765
  467          8     0.00733
  468         12     0.01288
  469         12     0.00788
  470         13     0.01085
  471         15     0.01192
  472          6     0.01065
  473         10     0.00741
  474          6     0.00921
  475          6     0.00664
  476          3     0.00592
  477         18     0.01219
  478          8     0.00903
  479          5     0.01143
  480          8     0.01137
  481          8     0.01494
  482         12     0.00855
  483          5     0.01004
  484          4     0.00607
  485          6     0.00675
  486          5     0.00687
  487          4     0.00669
  488         12     0.01338
  489         11     0.01122
  490          5     0.00759
  491          4     0.00672
  492          4     0.00663
  493          9     0.00670
  494          4     0.01578
  495          7     0.00658
  496          7     0.00672
  497          3     0.00585
  498          5     0.00697
  499          5     0.00646
  500          9     0.00654
  501          7     0.00993
  502          4     0.00662
  503          9     0.01277
  504          8     0.00866
  505          9     0.00725
  506          9     0.00681
  507         11     0.00884
  508          5     0.00716
  509          9     0.01009
  510          8     0.00664
  511          4     0.00637
  512          3     0.00579
  513          7     0.00665
  514          5     0.00653
  515          1     0.00552
  516          4     0.00626
  517          7     0.00656
  518          4     0.00616
  519          7     0.00930
  520          1     0.00548
  521          3     0.00577
  522          2     0.00628
  523          4     0.00604
  524          7     0.00677
  525          5     0.00964
  526          3     0.00938
  527          5     0.00661
  528          3     0.00579
  529          3     0.00552
  530          4     0.01126
  531          3     0.00622
  532          4     0.00639
  533          4     0.00593
  534          3     0.00593
  535          1     0.00561
  536          2     0.00612
  537          4     0.01196
  538          3     0.00750
  539          2     0.00584
  540          4     0.00590
  541          5     0.00931
  542          2     0.00953
  543          1     0.00500
  544          2     0.00581
  545          4     0.00599
  546          8     0.01014
  547          3     0.00584
  548          2     0.00579
  549          4     0.00666
  550          5     0.01172
  551          1     0.00548
  552          3     0.00621
  553          2     0.00601
  554          5     0.00877
  555          1     0.00598
  556          2     0.00577
  557          4     0.00616
  558          3     0.00609
  559          3     0.00698
  561          6     0.00643
  562          3     0.00811
  563          2     0.00577
  564          4     0.00603
  566          2     0.00606
  568          1     0.00592
  569          1     0.00564
  570          1     0.00516
  571          1     0.00854
  572          3     0.00553
  573          4     0.00983
  574          3     0.00570
  575          3     0.00866
  576          2     0.00565
  578          3     0.00580
  579          2     0.00896
  580          1     0.00557
  581          1     0.00582
  582          3     0.00613
  584          4     0.00622
  585          4     0.01030
  586          1     0.00547
  588          2     0.00566
  589          3     0.00684
  590          2     0.00582
  591          2     0.00602
  593          2     0.00577
  594          4     0.00603
  595          2     0.00522
  596          1     0.00538
  600          1     0.00555
  601          1     0.00556
  602          1     0.00575
  603          2     0.00545
  604          3     0.00613
  605          3     0.01010
  606          1     0.00592
  608          2     0.00606
  609          1     0.00610
  610          4     0.00647
  612          1     0.00568
  614          1     0.00551
  615          2     0.00565
  616          1     0.00576
  618          2     0.01320
  619          2     0.00592
  621          1     0.00548
  622          1     0.00593
  623          3     0.01512
  624          2     0.00825
  625          1     0.00571
  626          2     0.00593
  627          2     0.00824
  628          4     0.00884
  629          2     0.00557
  630          2     0.00568
  634          1     0.00570
  635          3     0.00535
  637          3     0.00953
  638          2     0.00596
  639          1     0.00536
  640          1     0.00564
  641          1     0.00543
  642          1     0.00495
  643          1     0.00793
  646          2     0.00547
  648          2     0.00581
  649          2     0.00836
  653          2     0.00612
  654          1     0.00549
  655          2     0.00533
  656          1     0.00539
  657          2     0.00572
  658          1     0.00555
  659          1     0.00784
  660          1     0.00572
  661          1     0.00555
  663          1     0.00537
  667          1     0.00543
  668          2     0.00977
  669          1     0.00512
[...]
 1246          1     0.00495
took 692 iterations
Trial Time:          0.04753
    0          1     0.02334
  149          1     0.03675
  175          1     0.22626
  176          1     0.02418
  177          1     0.14068
  178          1     0.02730
  179          3     0.12302
  180          4     0.05761
  181          7     0.34765
  182          7     0.18816
  183          8     0.20214
  184         10     0.35794
  185          9     0.14143
  186         20     0.34174
  187         22     0.25542
  188         23     0.66863
  189         46     0.48391
  190         52     0.33389
  191         55     0.52951
  192         81     0.48010
  193         99     0.65616
  194        111     0.58171
  195        126     0.59425
  196        163     0.48190
  197        165     0.54650
  198        199     1.01309
  199        195     0.80979
  200        257     0.51171
  201        222     0.44108
  202        230     0.42547
  203        278     0.41861
  204        296     0.46391
  205        312     0.59808
  206        322     0.44944
  207        320     0.35003
  208        307     0.44774
  209        333     0.40105
  210        311     0.38368
  211        377     0.35481
  212        360     0.34121
  213        346     0.41686
  214        335     0.34014
  215        350     0.24351
  216        340     0.29770
  217        353     0.30610
  218        370     0.26011
  219        389     0.35862
  220        336     0.19476
  221        326     0.22679
  222        370     0.20588
  223        374     0.16994
  224        359     0.23079
  225        333     0.15455
  226        348     0.14903
  227        353     0.18731
  228        344     0.17188
  229        385     0.18575
  230        368     0.17711
  231        359     0.13178
  232        341     0.14330
  233        331     0.14072
  234        364     0.12985
  235        341     0.15729
  236        358     0.13621
  237        355     0.10983
  238        338     0.12545
  239        323     0.11130
  240        356     0.10345
  241        309     0.10780
  242        314     0.11095
  243        353     0.10960
  244        305     0.09582
  245        309     0.10353
  246        309     0.09664
  247        325     0.11038
  248        332     0.08687
  249        315     0.10228
  250        291     0.08012
  251        319     0.09728
  252        313     0.09703
  253        320     0.10377
  254        300     0.07834
  255        309     0.10571
  256        333     0.09223
  257        305     0.07189
  258        304     0.07758
  259        295     0.09520
  260        324     0.09645
  261        304     0.07283
  262        300     0.08012
  263        264     0.06879
  264        295     0.07877
  265        291     0.07458
  266        315     0.06644
  267        258     0.06848
  268        307     0.08672
  269        296     0.06516
  270        275     0.06670
  271        267     0.05163
  272        294     0.06901
  273        263     0.06761
  274        282     0.06707
  275        292     0.07116
  276        305     0.06212
  277        261     0.05803
  278        332     0.08729
  279        303     0.06689
  280        291     0.06682
  281        275     0.06059
  282        274     0.06429
  283        280     0.06122
  284        294     0.05828
  285        269     0.05558
  286        292     0.07854
  287        270     0.05143
  288        263     0.07142
  289        276     0.05874
  290        262     0.06023
  291        277     0.05996
  292        265     0.05634
  293        263     0.05369
  294        262     0.07229
  295        275     0.05519
  296        267     0.05697
  297        251     0.07001
  298        262     0.06657
  299        287     0.05425
  300        257     0.06691
  301        228     0.05582
  302        257     0.05601
  303        279     0.04705
  304        248     0.05106
  305        237     0.04217
  306        247     0.04076
  307        260     0.05734
  308        252     0.05736
  309        252     0.04482
  310        235     0.05869
  311        244     0.05358
  312        218     0.04696
  313        259     0.05196
  314        242     0.05254
  315        271     0.05278
  316        232     0.05797
  317        277     0.05270
  318        252     0.05267
  319        246     0.04646
  320        260     0.04976
  321        232     0.03708
  322        217     0.05144
  323        246     0.05052
  324        246     0.03771
  325        232     0.03871
  326        226     0.04019
  327        229     0.03321
  328        255     0.05461
  329        271     0.04190
  330        253     0.04990
  331        230     0.04644
  332        270     0.04259
  333        226     0.04441
  334        231     0.03254
  335        230     0.05516
  336        258     0.04745
  337        237     0.05374
  338        213     0.03417
  339        252     0.05089
  340        238     0.03879
  341        258     0.04582
  342        240     0.04344
  343        257     0.04757
  344        223     0.04424
  345        276     0.04404
  346        235     0.03756
  347        248     0.04683
  348        223     0.05008
  349        222     0.04780
  350        231     0.03421
  351        225     0.03422
  352        214     0.04217
  353        238     0.04071
  354        210     0.03340
  355        229     0.04550
  356        209     0.02488
  357        228     0.04186
  358        222     0.03687
  359        213     0.04031
  360        199     0.03237
  361        230     0.05343
  362        215     0.03538
  363        227     0.03717
  364        215     0.03211
  365        217     0.03160
  366        217     0.03920
  367        196     0.03287
  368        221     0.03268
  369        225     0.03357
  370        216     0.02718
  371        200     0.04194
  372        236     0.03497
  373        210     0.03401
  374        215     0.05513
  375        230     0.03495
  376        205     0.02850
  377        194     0.03132
  378        198     0.03231
  379        224     0.04444
  380        206     0.02852
  381        201     0.03839
  382        217     0.03947
  383        195     0.03243
  384        207     0.04201
  385        205     0.03077
  386        215     0.03864
  387        209     0.03079
  388        222     0.04541
  389        168     0.03329
  390        203     0.03514
  391        200     0.03411
  392        188     0.03497
  393        202     0.02974
  394        188     0.04510
  395        199     0.03026
  396        214     0.03954
  397        218     0.02761
  398        204     0.03522
  399        211     0.03752
  400        203     0.02965
  401        188     0.03138
  402        196     0.02698
  403        224     0.03045
  404        221     0.03677
  405        180     0.03365
  406        176     0.02600
  407        216     0.03105
  408        185     0.03449
  409        181     0.02122
  410        208     0.03696
  411        192     0.03888
  412        189     0.04501
  413        187     0.03585
  414        215     0.03246
  415        198     0.03330
  416        202     0.02937
  417        195     0.03713
  418        212     0.03537
  419        178     0.03736
  420        203     0.02806
  421        212     0.03043
  422        199     0.03582
  423        192     0.03324
  424        179     0.02203
  425        196     0.02897
  426        205     0.03685
  427        202     0.04230
  428        176     0.02612
  429        176     0.02963
  430        184     0.02845
  431        225     0.02777
  432        208     0.03157
  433        193     0.03605
  434        188     0.03511
  435        185     0.03994
  436        177     0.03292
  437        205     0.03368
  438        202     0.03746
  439        188     0.02739
  440        172     0.02995
  441        164     0.03596
  442        183     0.03408
  443        178     0.03104
  444        167     0.03317
  445        183     0.03480
  446        144     0.02452
  447        166     0.02733
  448        156     0.02267
  449        150     0.02694
  450        148     0.02859
  451        153     0.02489
  452        144     0.02506
  453        141     0.02268
  454        126     0.02616
  455        134     0.02381
  456        113     0.02967
  457        104     0.02353
  458        124     0.02815
  459        123     0.02207
  460        109     0.03431
  461        107     0.02225
  462         81     0.02412
  463         95     0.02348
  464         88     0.02034
  465         96     0.01769
  466         87     0.02091
  467         87     0.01977
  468         79     0.02434
  469         87     0.02906
  470         71     0.02179
  471         74     0.02372
  472         66     0.01791
  473         65     0.01765
  474         70     0.02716
  475         73     0.02059
  476         60     0.01770
  477         55     0.02820
  478         53     0.02175
  479         56     0.02091
  480         56     0.02236
  481         54     0.02002
  482         52     0.01780
  483         54     0.02007
  484         49     0.02113
  485         51     0.01738
  486         57     0.02345
  487         50     0.01914
  488         46     0.01706
  489         55     0.01584
  490         50     0.02619
  491         47     0.01297
  492         46     0.01804
  493         54     0.02049
  494         44     0.01990
  495         38     0.01820
  496         50     0.01624
  497         42     0.02234
  498         41     0.01785
  499         44     0.01741
  500         47     0.02383
  501         34     0.01342
  502         60     0.02719
  503         39     0.02043
  504         40     0.02122
  505         35     0.01422
  506         40     0.01184
  507         33     0.01509
  508         33     0.01050
  509         49     0.01726
  510         31     0.02090
  511         40     0.01408
  512         29     0.01548
  513         34     0.01306
  514         24     0.00924
  515         33     0.02337
  516         37     0.01370
  517         29     0.01272
  518         23     0.00941
  519         24     0.01227
  520         31     0.01292
  521         28     0.01105
  522         22     0.01618
  523         44     0.02466
  524         28     0.01919
  525         29     0.01057
  526         28     0.01788
  527         29     0.01578
  528         34     0.01532
  529         18     0.00866
  530         27     0.01213
  531         35     0.01295
  532         24     0.01400
  533         32     0.02439
  534         31     0.01623
  535         24     0.01881
  536         20     0.01622
  537         24     0.00875
  538         22     0.01155
  539         18     0.00886
  540         21     0.01149
  541         25     0.00979
  542         16     0.00793
  543         25     0.00946
  544         24     0.01646
  545         25     0.01431
  546         20     0.02051
  547         29     0.01229
  548         21     0.01461
  549         21     0.01963
  550         22     0.01984
  551         21     0.01106
  552         24     0.02065
  553         23     0.01004
  554         25     0.00946
  555         19     0.01212
  556         25     0.00966
  557         24     0.00960
  558         18     0.00847
  559         24     0.01392
  560         16     0.01351
  561         17     0.01194
  562         20     0.01600
  563         17     0.01372
  564         16     0.00814
  565         20     0.00967
  566         15     0.00984
  567         12     0.01080
  568         18     0.01453
  569         11     0.01057
  570         28     0.02189
  571         19     0.00864
  572         16     0.01317
  573         24     0.00991
  574         18     0.01100
  575         20     0.01730
  576         17     0.01318
  577         13     0.00804
  578         15     0.00910
  579         15     0.01106
  580         15     0.01104
  581         18     0.01031
  582          8     0.00739
  583         14     0.00768
  584         20     0.01718
  585         17     0.01562
  586         13     0.00892
  587         17     0.00827
  588         17     0.01098
  589         11     0.00682
  590         25     0.00970
  591         14     0.00766
  592         14     0.01275
  593         13     0.01120
  594         17     0.01196
  595          9     0.00904
  596         13     0.00780
  597         15     0.01472
  598         18     0.01436
  599         13     0.00747
  600         14     0.00805
  601         14     0.01267
  602         15     0.01098
  603         11     0.00695
  604          8     0.00752
  605         11     0.01202
  606         16     0.01132
  607         14     0.01405
  608         13     0.00772
  609         13     0.01059
  610         19     0.01199
  611         14     0.00779
  612          9     0.00705
  613         14     0.00891
  614          9     0.00746
  615          9     0.00683
  616         14     0.01263
  617         15     0.00795
  618          7     0.00822
  619          6     0.01038
  620         13     0.00752
  621         10     0.01255
  622         16     0.00823
  623          7     0.00662
  624         10     0.01315
  625         12     0.01248
  626         10     0.00734
  627         10     0.00741
  628          7     0.00983
  629         15     0.00826
  630         12     0.00913
  631         13     0.01851
  632          8     0.00690
  633         10     0.00695
  634         11     0.00726
  635          9     0.00947
  636          8     0.01614
  637          9     0.00756
  638         12     0.01724
  639          9     0.00683
  640          8     0.00854
  641          8     0.01526
  642         12     0.00736
  643          7     0.00658
  644          5     0.00574
  645          6     0.00693
  646          7     0.00636
  647          6     0.01339
  648          8     0.00727
  649          4     0.00647
  650          9     0.00686
  651          6     0.00637
  652          5     0.00753
  653         11     0.00765
  654          7     0.00828
  655          5     0.00643
  656          3     0.00579
  657          5     0.00627
  658          7     0.00654
  659          3     0.00630
  660          8     0.01368
  661          5     0.00598
  662          5     0.00650
  663          5     0.00645
  664          8     0.01526
  665         12     0.00765
  666          9     0.01121
  667          9     0.00732
  668          3     0.00634
  669          6     0.00662
  670          6     0.00650
  671          3     0.00648
  672          5     0.00612
  673          6     0.00626
  674          9     0.00632
  675          5     0.00656
  676          4     0.00612
  677          7     0.00714
  678          7     0.00993
  679          4     0.00604
  680          3     0.00598
  681          5     0.00989
  682          8     0.00634
  683          2     0.00538
  684          4     0.00595
  685          2     0.00540
  686          6     0.01084
  687          6     0.00650
  688          6     0.00630
  689          2     0.00498
  690          4     0.00619
  691          3     0.00546
  692          3     0.00609
  694          5     0.00861
  695          2     0.00548
  696          4     0.00588
  697          3     0.00551
  698          1     0.00523
  699          4     0.00551
  700          5     0.01086
  701          1     0.00557
  702          1     0.00536
  703          4     0.00634
  704          4     0.00586
  705          5     0.00637
  706          6     0.00647
  707          3     0.00554
  708          6     0.00639
  709          2     0.00572
  710          5     0.01381
  711          3     0.00773
  712          5     0.00888
  713          2     0.01519
  714          6     0.00875
  715          1     0.00558
  716          2     0.00574
  717          1     0.00556
  718          2     0.00540
  719          5     0.00601
  720          4     0.00720
  721          5     0.01006
  722          2     0.00600
  723          3     0.00709
  724          4     0.00573
  725          1     0.00516
  728          1     0.00906
  729          1     0.00510
  730          2     0.00551
  731          2     0.00965
  732          2     0.00563
  733          2     0.00742
  734          1     0.00563
  735          3     0.00586
  736          3     0.00570
  737          2     0.00524
  738          1     0.00536
  739          3     0.00545
  740          1     0.00534
  741          2     0.00560
  742          1     0.00492
  743          4     0.00833
  745          1     0.00545
  746          1     0.00561
  747          3     0.00777
  748          2     0.00562
  749          4     0.00962
  750          1     0.00563
  752          3     0.00554
  753          1     0.00500
  754          2     0.00556
  755          1     0.00536
  758          3     0.00515
  759          2     0.00505
  760          3     0.00503
  761          2     0.00478
  763          4     0.00587
  764          3     0.00579
  766          3     0.00546
  769          1     0.00550
  770          4     0.00708
  771          1     0.00500
  773          1     0.00542
  774          3     0.00503
  775          3     0.00832
  776          1     0.00520
  777          1     0.00552
  778          2     0.00530
  779          1     0.00536
  780          2     0.00550
  782          2     0.00558
  783          1     0.00513
  786          2     0.01775
  788          5     0.00852
  789          1     0.00553
  792          4     0.00931
  794          2     0.00653
  795          1     0.00526
  797          3     0.00564
  798          1     0.00867
  799          2     0.00576
  800          2     0.00534
  804          2     0.00731
  805          1     0.00960
  809          3     0.00568
  811          1     0.00502
  812          1     0.00520
  813          2     0.00536
  814          2     0.00544
  815          1     0.00784
  816          1     0.00550
  817          3     0.00868
  818          2     0.00520
  819          1     0.00565
  821          3     0.00515
  824          3     0.00557
  829          1     0.00533
  830          1     0.00513
  831          2     0.03273
  833          2     0.00560
  834          1     0.00556
  837          1     0.00512
  848          2     0.00522
  849          2     0.00553
  850          1     0.00527
  851          1     0.00475
  855          1     0.00488
  856          1     0.00521
  857          1     0.00538
  858          1     0.00474
  859          1     0.00547
  861          1     0.00551
  862          1     0.00805
  867          1     0.00519
  870          1     0.00503
  871          2     0.00763
  872          2     0.00512
  876          1     0.00537
  877          1     0.00556
  879          1     0.00521
  880          1     0.00510
  881          1     0.00544
  887          1     0.00543
  893          1     0.00564
  896          1     0.00489
  899          1     0.00536
  900          1     0.00554
  901          1     0.00551
  908          1     0.00526
  930          1     0.00518
  932          1     0.00546
  941          1     0.00833
  945          2     0.00934
  947          1     0.00545
  951          1     0.00554
  952          1     0.00514
  956          1     0.00915
  961          1     0.00541
  962          1     0.00562
  972          1     0.00571
  989          1     0.00527
  993          1     0.00546
 1002          1     0.00510
 1003          1     0.00570
 1005          1     0.00531
 1009          1     0.00536
 1017          1     0.00575
 1041          1     0.00532
 1046          1     0.01446
 1049          2     0.00531
 1050          1     0.00501
 1051          1     0.00515
 1078          1     0.00540
 1097          1     0.00611
 1238          1     0.00500
took 681 iterations
Trial Time:          0.04694
Average Time:        0.04140
Exiting @ tick 1360578498500 because exiting with last active thread context
