
---------- Begin Simulation Statistics ----------
final_tick                               938877257500                       # Number of ticks from beginning of simulation (restored from checkpoints and never reset)
host_inst_rate                                  62289                       # Simulator instruction rate (inst/s)
host_mem_usage                                 701528                       # Number of bytes of host memory used
host_op_rate                                    62493                       # Simulator op (including micro ops) rate (op/s)
host_seconds                                 17754.17                       # Real time elapsed on the host
host_tick_rate                               52882076                       # Simulator tick rate (ticks/s)
sim_freq                                 1000000000000                       # Frequency of simulated ticks
sim_insts                                  1105890506                       # Number of instructions simulated
sim_ops                                    1109515870                       # Number of ops (including micro ops) simulated
sim_seconds                                  0.938877                       # Number of seconds simulated
sim_ticks                                938877257500                       # Number of ticks simulated
system.cpu0.branchPred.BTBCorrect                   0                       # Number of correct BTB predictions (this stat may not work properly.
system.cpu0.branchPred.BTBHitPct            88.008194                       # BTB Hit Percentage
system.cpu0.branchPred.BTBHits              141212707                       # Number of BTB hits
system.cpu0.branchPred.BTBLookups           160454045                       # Number of BTB lookups
system.cpu0.branchPred.RASInCorrect                 0                       # Number of incorrect RAS predictions.
system.cpu0.branchPred.condIncorrect         14539140                       # Number of conditional branches incorrect
system.cpu0.branchPred.condPredicted        220174769                       # Number of conditional branches predicted
system.cpu0.branchPred.indirectHits          18887301                       # Number of indirect target hits.
system.cpu0.branchPred.indirectLookups       19017820                       # Number of indirect predictor lookups.
system.cpu0.branchPred.indirectMisses          130519                       # Number of indirect misses.
system.cpu0.branchPred.lookups              280708559                       # Number of BP lookups
system.cpu0.branchPred.usedRAS                      0                       # Number of times the RAS was used to get a target.
system.cpu0.branchPredindirectMispredicted      1859544                       # Number of mispredicted indirect branches.
system.cpu0.commit.amos                       1811479                       # Number of atomic instructions committed
system.cpu0.commit.branchMispredicts          9374244                       # The number of times a branch was mispredicted
system.cpu0.commit.branches                 260696494                       # Number of branches committed
system.cpu0.commit.bw_lim_events             28526644                       # number cycles where commit BW limit reached
system.cpu0.commit.commitNonSpecStalls        5441391                       # The number of times commit has been forced to stall to communicate backwards
system.cpu0.commit.commitSquashedInsts       56023338                       # The number of squashed insts skipped by commit
system.cpu0.commit.committedInsts          1050805382                       # Number of instructions committed
system.cpu0.commit.committedOps            1052619373                       # Number of ops (including micro ops) committed
system.cpu0.commit.committed_per_cycle::samples   1735569812                       # Number of insts commited each cycle
system.cpu0.commit.committed_per_cycle::mean     0.606498                       # Number of insts commited each cycle
system.cpu0.commit.committed_per_cycle::stdev     1.370281                       # Number of insts commited each cycle
system.cpu0.commit.committed_per_cycle::underflows            0      0.00%      0.00% # Number of insts commited each cycle
system.cpu0.commit.committed_per_cycle::0   1230090597     70.88%     70.88% # Number of insts commited each cycle
system.cpu0.commit.committed_per_cycle::1    299269702     17.24%     88.12% # Number of insts commited each cycle
system.cpu0.commit.committed_per_cycle::2     72144517      4.16%     92.28% # Number of insts commited each cycle
system.cpu0.commit.committed_per_cycle::3     68140921      3.93%     96.20% # Number of insts commited each cycle
system.cpu0.commit.committed_per_cycle::4     22079987      1.27%     97.47% # Number of insts commited each cycle
system.cpu0.commit.committed_per_cycle::5      7553435      0.44%     97.91% # Number of insts commited each cycle
system.cpu0.commit.committed_per_cycle::6      4010464      0.23%     98.14% # Number of insts commited each cycle
system.cpu0.commit.committed_per_cycle::7      3753545      0.22%     98.36% # Number of insts commited each cycle
system.cpu0.commit.committed_per_cycle::8     28526644      1.64%    100.00% # Number of insts commited each cycle
system.cpu0.commit.committed_per_cycle::overflows            0      0.00%    100.00% # Number of insts commited each cycle
system.cpu0.commit.committed_per_cycle::min_value            0                       # Number of insts commited each cycle
system.cpu0.commit.committed_per_cycle::max_value            8                       # Number of insts commited each cycle
system.cpu0.commit.committed_per_cycle::total   1735569812                       # Number of insts commited each cycle
system.cpu0.commit.fp_insts                        50                       # Number of committed floating point instructions.
system.cpu0.commit.function_calls            20857853                       # Number of function calls committed.
system.cpu0.commit.int_insts               1015993187                       # Number of committed integer instructions.
system.cpu0.commit.loads                    326226415                       # Number of loads committed
system.cpu0.commit.membars                    3625350                       # Number of memory barriers committed
system.cpu0.commit.op_class_0::No_OpClass      3625356      0.34%      0.34% # Class of committed instruction
system.cpu0.commit.op_class_0::IntAlu       583951477     55.48%     55.82% # Class of committed instruction
system.cpu0.commit.op_class_0::IntMult        8031605      0.76%     56.58% # Class of committed instruction
system.cpu0.commit.op_class_0::IntDiv         1811037      0.17%     56.76% # Class of committed instruction
system.cpu0.commit.op_class_0::FloatAdd             0      0.00%     56.76% # Class of committed instruction
system.cpu0.commit.op_class_0::FloatCmp             4      0.00%     56.76% # Class of committed instruction
system.cpu0.commit.op_class_0::FloatCvt            12      0.00%     56.76% # Class of committed instruction
system.cpu0.commit.op_class_0::FloatMult            0      0.00%     56.76% # Class of committed instruction
system.cpu0.commit.op_class_0::FloatMultAcc            0      0.00%     56.76% # Class of committed instruction
system.cpu0.commit.op_class_0::FloatDiv             2      0.00%     56.76% # Class of committed instruction
system.cpu0.commit.op_class_0::FloatMisc            4      0.00%     56.76% # Class of committed instruction
system.cpu0.commit.op_class_0::FloatSqrt            0      0.00%     56.76% # Class of committed instruction
system.cpu0.commit.op_class_0::SimdAdd              0      0.00%     56.76% # Class of committed instruction
system.cpu0.commit.op_class_0::SimdAddAcc            0      0.00%     56.76% # Class of committed instruction
system.cpu0.commit.op_class_0::SimdAlu              0      0.00%     56.76% # Class of committed instruction
system.cpu0.commit.op_class_0::SimdCmp              0      0.00%     56.76% # Class of committed instruction
system.cpu0.commit.op_class_0::SimdCvt              0      0.00%     56.76% # Class of committed instruction
system.cpu0.commit.op_class_0::SimdMisc             0      0.00%     56.76% # Class of committed instruction
system.cpu0.commit.op_class_0::SimdMult             0      0.00%     56.76% # Class of committed instruction
system.cpu0.commit.op_class_0::SimdMultAcc            0      0.00%     56.76% # Class of committed instruction
system.cpu0.commit.op_class_0::SimdShift            0      0.00%     56.76% # Class of committed instruction
system.cpu0.commit.op_class_0::SimdShiftAcc            0      0.00%     56.76% # Class of committed instruction
system.cpu0.commit.op_class_0::SimdDiv              0      0.00%     56.76% # Class of committed instruction
system.cpu0.commit.op_class_0::SimdSqrt             0      0.00%     56.76% # Class of committed instruction
system.cpu0.commit.op_class_0::SimdFloatAdd            0      0.00%     56.76% # Class of committed instruction
system.cpu0.commit.op_class_0::SimdFloatAlu            0      0.00%     56.76% # Class of committed instruction
system.cpu0.commit.op_class_0::SimdFloatCmp            0      0.00%     56.76% # Class of committed instruction
system.cpu0.commit.op_class_0::SimdFloatCvt            0      0.00%     56.76% # Class of committed instruction
system.cpu0.commit.op_class_0::SimdFloatDiv            0      0.00%     56.76% # Class of committed instruction
system.cpu0.commit.op_class_0::SimdFloatMisc            0      0.00%     56.76% # Class of committed instruction
system.cpu0.commit.op_class_0::SimdFloatMult            0      0.00%     56.76% # Class of committed instruction
system.cpu0.commit.op_class_0::SimdFloatMultAcc            0      0.00%     56.76% # Class of committed instruction
system.cpu0.commit.op_class_0::SimdFloatSqrt            0      0.00%     56.76% # Class of committed instruction
system.cpu0.commit.op_class_0::SimdReduceAdd            0      0.00%     56.76% # Class of committed instruction
system.cpu0.commit.op_class_0::SimdReduceAlu            0      0.00%     56.76% # Class of committed instruction
system.cpu0.commit.op_class_0::SimdReduceCmp            0      0.00%     56.76% # Class of committed instruction
system.cpu0.commit.op_class_0::SimdFloatReduceAdd            0      0.00%     56.76% # Class of committed instruction
system.cpu0.commit.op_class_0::SimdFloatReduceCmp            0      0.00%     56.76% # Class of committed instruction
system.cpu0.commit.op_class_0::SimdAes              0      0.00%     56.76% # Class of committed instruction
system.cpu0.commit.op_class_0::SimdAesMix            0      0.00%     56.76% # Class of committed instruction
system.cpu0.commit.op_class_0::SimdSha1Hash            0      0.00%     56.76% # Class of committed instruction
system.cpu0.commit.op_class_0::SimdSha1Hash2            0      0.00%     56.76% # Class of committed instruction
system.cpu0.commit.op_class_0::SimdSha256Hash            0      0.00%     56.76% # Class of committed instruction
system.cpu0.commit.op_class_0::SimdSha256Hash2            0      0.00%     56.76% # Class of committed instruction
system.cpu0.commit.op_class_0::SimdShaSigma2            0      0.00%     56.76% # Class of committed instruction
system.cpu0.commit.op_class_0::SimdShaSigma3            0      0.00%     56.76% # Class of committed instruction
system.cpu0.commit.op_class_0::SimdPredAlu            0      0.00%     56.76% # Class of committed instruction
system.cpu0.commit.op_class_0::MemRead      328037886     31.16%     87.92% # Class of committed instruction
system.cpu0.commit.op_class_0::MemWrite     127161962     12.08%    100.00% # Class of committed instruction
system.cpu0.commit.op_class_0::FloatMemRead            8      0.00%    100.00% # Class of committed instruction
system.cpu0.commit.op_class_0::FloatMemWrite           20      0.00%    100.00% # Class of committed instruction
system.cpu0.commit.op_class_0::IprAccess            0      0.00%    100.00% # Class of committed instruction
system.cpu0.commit.op_class_0::InstPrefetch            0      0.00%    100.00% # Class of committed instruction
system.cpu0.commit.op_class_0::total       1052619373                       # Class of committed instruction
system.cpu0.commit.refs                     455199876                       # Number of memory references committed
system.cpu0.commit.swp_count                        0                       # Number of s/w prefetches committed
system.cpu0.commit.vec_insts                        0                       # Number of committed Vector instructions.
system.cpu0.committedInsts                 1050805382                       # Number of Instructions Simulated
system.cpu0.committedOps                   1052619373                       # Number of Ops (including micro ops) Simulated
system.cpu0.cpi                              1.782971                       # CPI: Cycles Per Instruction
system.cpu0.cpi_total                        1.782971                       # CPI: Total CPI of All Threads
system.cpu0.decode.BlockedCycles            333094034                       # Number of cycles decode is blocked
system.cpu0.decode.BranchMispred              5172795                       # Number of times decode detected a branch misprediction
system.cpu0.decode.BranchResolved           139674765                       # Number of times decode resolved a branch
system.cpu0.decode.DecodedInsts            1129769581                       # Number of instructions handled by decode
system.cpu0.decode.IdleCycles               632519890                       # Number of cycles decode is idle
system.cpu0.decode.RunCycles                769814128                       # Number of cycles decode is running
system.cpu0.decode.SquashCycles               9382291                       # Number of cycles decode is squashing
system.cpu0.decode.SquashedInsts             14632932                       # Number of squashed instructions handled by decode
system.cpu0.decode.UnblockCycles              4923447                       # Number of cycles decode is unblocking
system.cpu0.dtb.accesses                            0                       # DTB accesses
system.cpu0.dtb.hits                                0                       # DTB hits
system.cpu0.dtb.misses                              0                       # DTB misses
system.cpu0.dtb.read_accesses                       0                       # DTB read accesses
system.cpu0.dtb.read_hits                           0                       # DTB read hits
system.cpu0.dtb.read_misses                         0                       # DTB read misses
system.cpu0.dtb.write_accesses                      0                       # DTB write accesses
system.cpu0.dtb.write_hits                          0                       # DTB write hits
system.cpu0.dtb.write_misses                        0                       # DTB write misses
system.cpu0.fetch.Branches                  280708559                       # Number of branches that fetch encountered
system.cpu0.fetch.CacheLines                189439477                       # Number of cache lines fetched
system.cpu0.fetch.Cycles                   1117491831                       # Number of cycles fetch has run and was not squashing or blocked
system.cpu0.fetch.IcacheSquashes              5116861                       # Number of outstanding Icache misses that were squashed
system.cpu0.fetch.IcacheWaitRetryStallCycles          106                       # Number of stall cycles due to full MSHR
system.cpu0.fetch.Insts                    1154346979                       # Number of instructions fetch has processed
system.cpu0.fetch.MiscStallCycles                  31                       # Number of cycles fetch has spent waiting on interrupts, or bad addresses, or out of MSHRs
system.cpu0.fetch.PendingTrapStallCycles          135                       # Number of stall cycles due to pending traps
system.cpu0.fetch.SquashCycles               29094416                       # Number of cycles fetch has spent squashing
system.cpu0.fetch.branchRate                 0.149827                       # Number of branch fetches per cycle
system.cpu0.fetch.icacheStallCycles         617694479                       # Number of cycles fetch is stalled on an Icache miss
system.cpu0.fetch.predictedBranches         160100008                       # Number of branches that fetch has predicted taken
system.cpu0.fetch.rate                       0.616126                       # Number of inst fetches per cycle
system.cpu0.fetch.rateDist::samples        1749733790                       # Number of instructions fetched each cycle (Total)
system.cpu0.fetch.rateDist::mean             0.660765                       # Number of instructions fetched each cycle (Total)
system.cpu0.fetch.rateDist::stdev            0.922537                       # Number of instructions fetched each cycle (Total)
system.cpu0.fetch.rateDist::underflows              0      0.00%      0.00% # Number of instructions fetched each cycle (Total)
system.cpu0.fetch.rateDist::0               944940609     54.00%     54.00% # Number of instructions fetched each cycle (Total)
system.cpu0.fetch.rateDist::1               592132468     33.84%     87.85% # Number of instructions fetched each cycle (Total)
system.cpu0.fetch.rateDist::2               109108581      6.24%     94.08% # Number of instructions fetched each cycle (Total)
system.cpu0.fetch.rateDist::3                79748073      4.56%     98.64% # Number of instructions fetched each cycle (Total)
system.cpu0.fetch.rateDist::4                18564733      1.06%     99.70% # Number of instructions fetched each cycle (Total)
system.cpu0.fetch.rateDist::5                 2973948      0.17%     99.87% # Number of instructions fetched each cycle (Total)
system.cpu0.fetch.rateDist::6                  341227      0.02%     99.89% # Number of instructions fetched each cycle (Total)
system.cpu0.fetch.rateDist::7                     586      0.00%     99.89% # Number of instructions fetched each cycle (Total)
system.cpu0.fetch.rateDist::8                 1923565      0.11%    100.00% # Number of instructions fetched each cycle (Total)
system.cpu0.fetch.rateDist::overflows               0      0.00%    100.00% # Number of instructions fetched each cycle (Total)
system.cpu0.fetch.rateDist::min_value               0                       # Number of instructions fetched each cycle (Total)
system.cpu0.fetch.rateDist::max_value               8                       # Number of instructions fetched each cycle (Total)
system.cpu0.fetch.rateDist::total          1749733790                       # Number of instructions fetched each cycle (Total)
system.cpu0.fp_regfile_reads                       47                       # number of floating regfile reads
system.cpu0.fp_regfile_writes                      24                       # number of floating regfile writes
system.cpu0.idleCycles                      123821929                       # Total number of cycles that the CPU has spent unscheduled due to idling
system.cpu0.iew.branchMispredicts             9522429                       # Number of branch mispredicts detected at execute
system.cpu0.iew.exec_branches               267739571                       # Number of branches executed
system.cpu0.iew.exec_nop                            0                       # number of nop insts executed
system.cpu0.iew.exec_rate                    0.586865                       # Inst execution rate
system.cpu0.iew.exec_refs                   483753044                       # number of memory reference insts executed
system.cpu0.iew.exec_stores                 134081375                       # Number of stores executed
system.cpu0.iew.exec_swp                            0                       # number of swp insts executed
system.cpu0.iew.iewBlockCycles              281476590                       # Number of cycles IEW is blocking
system.cpu0.iew.iewDispLoadInsts            349620199                       # Number of dispatched load instructions
system.cpu0.iew.iewDispNonSpecInsts           1816667                       # Number of dispatched non-speculative instructions
system.cpu0.iew.iewDispSquashedInsts          4535362                       # Number of squashed instructions skipped by dispatch
system.cpu0.iew.iewDispStoreInsts           135368252                       # Number of dispatched store instructions
system.cpu0.iew.iewDispatchedInsts         1108625991                       # Number of instructions dispatched to IQ
system.cpu0.iew.iewExecLoadInsts            349671669                       # Number of load instructions executed
system.cpu0.iew.iewExecSquashedInsts          6591748                       # Number of squashed instructions skipped in execute
system.cpu0.iew.iewExecutedInsts           1099524957                       # Number of executed instructions
system.cpu0.iew.iewIQFullEvents               1632873                       # Number of times the IQ has become full, causing a stall
system.cpu0.iew.iewIdleCycles                       0                       # Number of cycles IEW is idle
system.cpu0.iew.iewLSQFullEvents              2721341                       # Number of times the LSQ has become full, causing a stall
system.cpu0.iew.iewSquashCycles               9382291                       # Number of cycles IEW is squashing
system.cpu0.iew.iewUnblockCycles              6321616                       # Number of cycles IEW is unblocking
system.cpu0.iew.lsq.thread0.blockedLoads            0                       # Number of blocked loads due to partial load-store forwarding
system.cpu0.iew.lsq.thread0.cacheBlocked       104869                       # Number of times an access to memory failed due to the cache being blocked
system.cpu0.iew.lsq.thread0.forwLoads        17071665                       # Number of loads that had data forwarded from stores
system.cpu0.iew.lsq.thread0.ignoredResponses        87576                       # Number of memory responses ignored because the instruction is squashed
system.cpu0.iew.lsq.thread0.invAddrLoads            0                       # Number of loads ignored due to an invalid address
system.cpu0.iew.lsq.thread0.invAddrSwpfs            0                       # Number of software prefetches ignored due to an invalid address
system.cpu0.iew.lsq.thread0.memOrderViolation         8265                       # Number of memory ordering violations
system.cpu0.iew.lsq.thread0.rescheduledLoads      4334421                       # Number of loads that were rescheduled
system.cpu0.iew.lsq.thread0.squashedLoads     23393784                       # Number of loads squashed
system.cpu0.iew.lsq.thread0.squashedStores      6394791                       # Number of stores squashed
system.cpu0.iew.memOrderViolationEvents          8265                       # Number of memory order violations
system.cpu0.iew.predictedNotTakenIncorrect      1188213                       # Number of branches that were predicted not taken incorrectly
system.cpu0.iew.predictedTakenIncorrect       8334216                       # Number of branches that were predicted taken incorrectly
system.cpu0.iew.wb_consumers                498189726                       # num instructions consuming a value
system.cpu0.iew.wb_count                   1089788313                       # cumulative count of insts written-back
system.cpu0.iew.wb_fanout                    0.837518                       # average fanout of values written-back
system.cpu0.iew.wb_producers                417242949                       # num instructions producing a value
system.cpu0.iew.wb_rate                      0.581668                       # insts written-back per cycle
system.cpu0.iew.wb_sent                    1089872279                       # cumulative count of insts sent to commit
system.cpu0.int_regfile_reads              1344652839                       # number of integer regfile reads
system.cpu0.int_regfile_writes              695904671                       # number of integer regfile writes
system.cpu0.ipc                              0.560862                       # IPC: Instructions Per Cycle
system.cpu0.ipc_total                        0.560862                       # IPC: Total IPC of All Threads
system.cpu0.iq.FU_type_0::No_OpClass          3626850      0.33%      0.33% # Type of FU issued
system.cpu0.iq.FU_type_0::IntAlu            605764419     54.76%     55.09% # Type of FU issued
system.cpu0.iq.FU_type_0::IntMult             8140451      0.74%     55.83% # Type of FU issued
system.cpu0.iq.FU_type_0::IntDiv              1811525      0.16%     55.99% # Type of FU issued
system.cpu0.iq.FU_type_0::FloatAdd                  0      0.00%     55.99% # Type of FU issued
system.cpu0.iq.FU_type_0::FloatCmp                  4      0.00%     55.99% # Type of FU issued
system.cpu0.iq.FU_type_0::FloatCvt                 12      0.00%     55.99% # Type of FU issued
system.cpu0.iq.FU_type_0::FloatMult                 0      0.00%     55.99% # Type of FU issued
system.cpu0.iq.FU_type_0::FloatMultAcc              1      0.00%     55.99% # Type of FU issued
system.cpu0.iq.FU_type_0::FloatDiv                  2      0.00%     55.99% # Type of FU issued
system.cpu0.iq.FU_type_0::FloatMisc                 4      0.00%     55.99% # Type of FU issued
system.cpu0.iq.FU_type_0::FloatSqrt                 0      0.00%     55.99% # Type of FU issued
system.cpu0.iq.FU_type_0::SimdAdd                   0      0.00%     55.99% # Type of FU issued
system.cpu0.iq.FU_type_0::SimdAddAcc                0      0.00%     55.99% # Type of FU issued
system.cpu0.iq.FU_type_0::SimdAlu                   0      0.00%     55.99% # Type of FU issued
system.cpu0.iq.FU_type_0::SimdCmp                   0      0.00%     55.99% # Type of FU issued
system.cpu0.iq.FU_type_0::SimdCvt                   0      0.00%     55.99% # Type of FU issued
system.cpu0.iq.FU_type_0::SimdMisc                  0      0.00%     55.99% # Type of FU issued
system.cpu0.iq.FU_type_0::SimdMult                  0      0.00%     55.99% # Type of FU issued
system.cpu0.iq.FU_type_0::SimdMultAcc               0      0.00%     55.99% # Type of FU issued
system.cpu0.iq.FU_type_0::SimdShift                 0      0.00%     55.99% # Type of FU issued
system.cpu0.iq.FU_type_0::SimdShiftAcc              0      0.00%     55.99% # Type of FU issued
system.cpu0.iq.FU_type_0::SimdDiv                   0      0.00%     55.99% # Type of FU issued
system.cpu0.iq.FU_type_0::SimdSqrt                  0      0.00%     55.99% # Type of FU issued
system.cpu0.iq.FU_type_0::SimdFloatAdd              0      0.00%     55.99% # Type of FU issued
system.cpu0.iq.FU_type_0::SimdFloatAlu              0      0.00%     55.99% # Type of FU issued
system.cpu0.iq.FU_type_0::SimdFloatCmp              0      0.00%     55.99% # Type of FU issued
system.cpu0.iq.FU_type_0::SimdFloatCvt              0      0.00%     55.99% # Type of FU issued
system.cpu0.iq.FU_type_0::SimdFloatDiv              0      0.00%     55.99% # Type of FU issued
system.cpu0.iq.FU_type_0::SimdFloatMisc             0      0.00%     55.99% # Type of FU issued
system.cpu0.iq.FU_type_0::SimdFloatMult             0      0.00%     55.99% # Type of FU issued
system.cpu0.iq.FU_type_0::SimdFloatMultAcc            0      0.00%     55.99% # Type of FU issued
system.cpu0.iq.FU_type_0::SimdFloatSqrt             0      0.00%     55.99% # Type of FU issued
system.cpu0.iq.FU_type_0::SimdReduceAdd             0      0.00%     55.99% # Type of FU issued
system.cpu0.iq.FU_type_0::SimdReduceAlu             0      0.00%     55.99% # Type of FU issued
system.cpu0.iq.FU_type_0::SimdReduceCmp             0      0.00%     55.99% # Type of FU issued
system.cpu0.iq.FU_type_0::SimdFloatReduceAdd            0      0.00%     55.99% # Type of FU issued
system.cpu0.iq.FU_type_0::SimdFloatReduceCmp            0      0.00%     55.99% # Type of FU issued
system.cpu0.iq.FU_type_0::SimdAes                   0      0.00%     55.99% # Type of FU issued
system.cpu0.iq.FU_type_0::SimdAesMix                0      0.00%     55.99% # Type of FU issued
system.cpu0.iq.FU_type_0::SimdSha1Hash              0      0.00%     55.99% # Type of FU issued
system.cpu0.iq.FU_type_0::SimdSha1Hash2             0      0.00%     55.99% # Type of FU issued
system.cpu0.iq.FU_type_0::SimdSha256Hash            0      0.00%     55.99% # Type of FU issued
system.cpu0.iq.FU_type_0::SimdSha256Hash2            0      0.00%     55.99% # Type of FU issued
system.cpu0.iq.FU_type_0::SimdShaSigma2             0      0.00%     55.99% # Type of FU issued
system.cpu0.iq.FU_type_0::SimdShaSigma3             0      0.00%     55.99% # Type of FU issued
system.cpu0.iq.FU_type_0::SimdPredAlu               0      0.00%     55.99% # Type of FU issued
system.cpu0.iq.FU_type_0::MemRead           354042922     32.01%     88.00% # Type of FU issued
system.cpu0.iq.FU_type_0::MemWrite          132730486     12.00%    100.00% # Type of FU issued
system.cpu0.iq.FU_type_0::FloatMemRead              9      0.00%    100.00% # Type of FU issued
system.cpu0.iq.FU_type_0::FloatMemWrite            20      0.00%    100.00% # Type of FU issued
system.cpu0.iq.FU_type_0::IprAccess                 0      0.00%    100.00% # Type of FU issued
system.cpu0.iq.FU_type_0::InstPrefetch              0      0.00%    100.00% # Type of FU issued
system.cpu0.iq.FU_type_0::total            1106116705                       # Type of FU issued
system.cpu0.iq.fp_alu_accesses                     56                       # Number of floating point alu accesses
system.cpu0.iq.fp_inst_queue_reads                108                       # Number of floating instruction queue reads
system.cpu0.iq.fp_inst_queue_wakeup_accesses           52                       # Number of floating instruction queue wakeup accesses
system.cpu0.iq.fp_inst_queue_writes                54                       # Number of floating instruction queue writes
system.cpu0.iq.fu_busy_cnt                    2134416                       # FU busy when requested
system.cpu0.iq.fu_busy_rate                  0.001930                       # FU busy rate (busy events/executed inst)
system.cpu0.iq.fu_full::No_OpClass                  0      0.00%      0.00% # attempts to use FU when none available
system.cpu0.iq.fu_full::IntAlu                 353859     16.58%     16.58% # attempts to use FU when none available
system.cpu0.iq.fu_full::IntMult                     8      0.00%     16.58% # attempts to use FU when none available
system.cpu0.iq.fu_full::IntDiv                      0      0.00%     16.58% # attempts to use FU when none available
system.cpu0.iq.fu_full::FloatAdd                    0      0.00%     16.58% # attempts to use FU when none available
system.cpu0.iq.fu_full::FloatCmp                    0      0.00%     16.58% # attempts to use FU when none available
system.cpu0.iq.fu_full::FloatCvt                    0      0.00%     16.58% # attempts to use FU when none available
system.cpu0.iq.fu_full::FloatMult                   0      0.00%     16.58% # attempts to use FU when none available
system.cpu0.iq.fu_full::FloatMultAcc                0      0.00%     16.58% # attempts to use FU when none available
system.cpu0.iq.fu_full::FloatDiv                    0      0.00%     16.58% # attempts to use FU when none available
system.cpu0.iq.fu_full::FloatMisc                   0      0.00%     16.58% # attempts to use FU when none available
system.cpu0.iq.fu_full::FloatSqrt                   0      0.00%     16.58% # attempts to use FU when none available
system.cpu0.iq.fu_full::SimdAdd                     0      0.00%     16.58% # attempts to use FU when none available
system.cpu0.iq.fu_full::SimdAddAcc                  0      0.00%     16.58% # attempts to use FU when none available
system.cpu0.iq.fu_full::SimdAlu                     0      0.00%     16.58% # attempts to use FU when none available
system.cpu0.iq.fu_full::SimdCmp                     0      0.00%     16.58% # attempts to use FU when none available
system.cpu0.iq.fu_full::SimdCvt                     0      0.00%     16.58% # attempts to use FU when none available
system.cpu0.iq.fu_full::SimdMisc                    0      0.00%     16.58% # attempts to use FU when none available
system.cpu0.iq.fu_full::SimdMult                    0      0.00%     16.58% # attempts to use FU when none available
system.cpu0.iq.fu_full::SimdMultAcc                 0      0.00%     16.58% # attempts to use FU when none available
system.cpu0.iq.fu_full::SimdShift                   0      0.00%     16.58% # attempts to use FU when none available
system.cpu0.iq.fu_full::SimdShiftAcc                0      0.00%     16.58% # attempts to use FU when none available
system.cpu0.iq.fu_full::SimdDiv                     0      0.00%     16.58% # attempts to use FU when none available
system.cpu0.iq.fu_full::SimdSqrt                    0      0.00%     16.58% # attempts to use FU when none available
system.cpu0.iq.fu_full::SimdFloatAdd                0      0.00%     16.58% # attempts to use FU when none available
system.cpu0.iq.fu_full::SimdFloatAlu                0      0.00%     16.58% # attempts to use FU when none available
system.cpu0.iq.fu_full::SimdFloatCmp                0      0.00%     16.58% # attempts to use FU when none available
system.cpu0.iq.fu_full::SimdFloatCvt                0      0.00%     16.58% # attempts to use FU when none available
system.cpu0.iq.fu_full::SimdFloatDiv                0      0.00%     16.58% # attempts to use FU when none available
system.cpu0.iq.fu_full::SimdFloatMisc               0      0.00%     16.58% # attempts to use FU when none available
system.cpu0.iq.fu_full::SimdFloatMult               0      0.00%     16.58% # attempts to use FU when none available
system.cpu0.iq.fu_full::SimdFloatMultAcc            0      0.00%     16.58% # attempts to use FU when none available
system.cpu0.iq.fu_full::SimdFloatSqrt               0      0.00%     16.58% # attempts to use FU when none available
system.cpu0.iq.fu_full::SimdReduceAdd               0      0.00%     16.58% # attempts to use FU when none available
system.cpu0.iq.fu_full::SimdReduceAlu               0      0.00%     16.58% # attempts to use FU when none available
system.cpu0.iq.fu_full::SimdReduceCmp               0      0.00%     16.58% # attempts to use FU when none available
system.cpu0.iq.fu_full::SimdFloatReduceAdd            0      0.00%     16.58% # attempts to use FU when none available
system.cpu0.iq.fu_full::SimdFloatReduceCmp            0      0.00%     16.58% # attempts to use FU when none available
system.cpu0.iq.fu_full::SimdAes                     0      0.00%     16.58% # attempts to use FU when none available
system.cpu0.iq.fu_full::SimdAesMix                  0      0.00%     16.58% # attempts to use FU when none available
system.cpu0.iq.fu_full::SimdSha1Hash                0      0.00%     16.58% # attempts to use FU when none available
system.cpu0.iq.fu_full::SimdSha1Hash2               0      0.00%     16.58% # attempts to use FU when none available
system.cpu0.iq.fu_full::SimdSha256Hash              0      0.00%     16.58% # attempts to use FU when none available
system.cpu0.iq.fu_full::SimdSha256Hash2             0      0.00%     16.58% # attempts to use FU when none available
system.cpu0.iq.fu_full::SimdShaSigma2               0      0.00%     16.58% # attempts to use FU when none available
system.cpu0.iq.fu_full::SimdShaSigma3               0      0.00%     16.58% # attempts to use FU when none available
system.cpu0.iq.fu_full::SimdPredAlu                 0      0.00%     16.58% # attempts to use FU when none available
system.cpu0.iq.fu_full::MemRead               1574859     73.78%     90.36% # attempts to use FU when none available
system.cpu0.iq.fu_full::MemWrite               205686      9.64%    100.00% # attempts to use FU when none available
system.cpu0.iq.fu_full::FloatMemRead                0      0.00%    100.00% # attempts to use FU when none available
system.cpu0.iq.fu_full::FloatMemWrite               4      0.00%    100.00% # attempts to use FU when none available
system.cpu0.iq.fu_full::IprAccess                   0      0.00%    100.00% # attempts to use FU when none available
system.cpu0.iq.fu_full::InstPrefetch                0      0.00%    100.00% # attempts to use FU when none available
system.cpu0.iq.int_alu_accesses            1104624215                       # Number of integer alu accesses
system.cpu0.iq.int_inst_queue_reads        3964223385                       # Number of integer instruction queue reads
system.cpu0.iq.int_inst_queue_wakeup_accesses   1089788261                       # Number of integer instruction queue wakeup accesses
system.cpu0.iq.int_inst_queue_writes       1164639967                       # Number of integer instruction queue writes
system.cpu0.iq.iqInstsAdded                1103182723                       # Number of instructions added to the IQ (excludes non-spec)
system.cpu0.iq.iqInstsIssued               1106116705                       # Number of instructions issued
system.cpu0.iq.iqNonSpecInstsAdded            5443268                       # Number of non-speculative instructions added to the IQ
system.cpu0.iq.iqSquashedInstsExamined       56006615                       # Number of squashed instructions iterated over during squash; mainly for profiling
system.cpu0.iq.iqSquashedInstsIssued           121877                       # Number of squashed instructions issued
system.cpu0.iq.iqSquashedNonSpecRemoved          1877                       # Number of squashed non-spec instructions that were removed
system.cpu0.iq.iqSquashedOperandsExamined     18848660                       # Number of squashed operands that are examined and possibly removed from graph
system.cpu0.iq.issued_per_cycle::samples   1749733790                       # Number of insts issued each cycle
system.cpu0.iq.issued_per_cycle::mean        0.632163                       # Number of insts issued each cycle
system.cpu0.iq.issued_per_cycle::stdev       0.856751                       # Number of insts issued each cycle
system.cpu0.iq.issued_per_cycle::underflows            0      0.00%      0.00% # Number of insts issued each cycle
system.cpu0.iq.issued_per_cycle::0          980073918     56.01%     56.01% # Number of insts issued each cycle
system.cpu0.iq.issued_per_cycle::1          516762486     29.53%     85.55% # Number of insts issued each cycle
system.cpu0.iq.issued_per_cycle::2          182859537     10.45%     96.00% # Number of insts issued each cycle
system.cpu0.iq.issued_per_cycle::3           59638349      3.41%     99.41% # Number of insts issued each cycle
system.cpu0.iq.issued_per_cycle::4            8740023      0.50%     99.91% # Number of insts issued each cycle
system.cpu0.iq.issued_per_cycle::5             663625      0.04%     99.94% # Number of insts issued each cycle
system.cpu0.iq.issued_per_cycle::6             675551      0.04%     99.98% # Number of insts issued each cycle
system.cpu0.iq.issued_per_cycle::7             173833      0.01%     99.99% # Number of insts issued each cycle
system.cpu0.iq.issued_per_cycle::8             146468      0.01%    100.00% # Number of insts issued each cycle
system.cpu0.iq.issued_per_cycle::overflows            0      0.00%    100.00% # Number of insts issued each cycle
system.cpu0.iq.issued_per_cycle::min_value            0                       # Number of insts issued each cycle
system.cpu0.iq.issued_per_cycle::max_value            8                       # Number of insts issued each cycle
system.cpu0.iq.issued_per_cycle::total     1749733790                       # Number of insts issued each cycle
system.cpu0.iq.rate                          0.590384                       # Inst issue rate
system.cpu0.iq.vec_alu_accesses                     0                       # Number of vector alu accesses
system.cpu0.iq.vec_inst_queue_reads                 0                       # Number of vector instruction queue reads
system.cpu0.iq.vec_inst_queue_wakeup_accesses            0                       # Number of vector instruction queue wakeup accesses
system.cpu0.iq.vec_inst_queue_writes                0                       # Number of vector instruction queue writes
system.cpu0.itb.accesses                            0                       # DTB accesses
system.cpu0.itb.hits                                0                       # DTB hits
system.cpu0.itb.misses                              0                       # DTB misses
system.cpu0.itb.read_accesses                       0                       # DTB read accesses
system.cpu0.itb.read_hits                           0                       # DTB read hits
system.cpu0.itb.read_misses                         0                       # DTB read misses
system.cpu0.itb.write_accesses                      0                       # DTB write accesses
system.cpu0.itb.write_hits                          0                       # DTB write hits
system.cpu0.itb.write_misses                        0                       # DTB write misses
system.cpu0.memDep0.conflictingLoads         17171919                       # Number of conflicting loads.
system.cpu0.memDep0.conflictingStores         3818774                       # Number of conflicting stores.
system.cpu0.memDep0.insertedLoads           349620199                       # Number of loads inserted to the mem dependence unit.
system.cpu0.memDep0.insertedStores          135368252                       # Number of stores inserted to the mem dependence unit.
system.cpu0.misc_regfile_reads                   1504                       # number of misc regfile reads
system.cpu0.misc_regfile_writes                    22                       # number of misc regfile writes
system.cpu0.numCycles                      1873555719                       # number of cpu cycles simulated
system.cpu0.numWorkItemsCompleted                   0                       # number of work items this cpu completed
system.cpu0.numWorkItemsStarted                     0                       # number of work items this cpu started
system.cpu0.quiesceCycles                     4198992                       # Total number of cycles that CPU has spent quiesced or waiting for an interrupt
system.cpu0.rename.BlockCycles              301379759                       # Number of cycles rename is blocking
system.cpu0.rename.CommittedMaps            670650791                       # Number of HB maps that are committed
system.cpu0.rename.IQFullEvents              12443630                       # Number of times rename has blocked due to IQ full
system.cpu0.rename.IdleCycles               642977006                       # Number of cycles rename is idle
system.cpu0.rename.LQFullEvents               7427767                       # Number of times rename has blocked due to LQ full
system.cpu0.rename.ROBFullEvents                26862                       # Number of times rename has blocked due to ROB full
system.cpu0.rename.RenameLookups           1375669417                       # Number of register rename lookups that rename has made
system.cpu0.rename.RenamedInsts            1123864260                       # Number of instructions processed by rename
system.cpu0.rename.RenamedOperands          720906247                       # Number of destination operands rename has renamed
system.cpu0.rename.RunCycles                763350404                       # Number of cycles rename is running
system.cpu0.rename.SQFullEvents              12449254                       # Number of times rename has blocked due to SQ full
system.cpu0.rename.SquashCycles               9382291                       # Number of cycles rename is squashing
system.cpu0.rename.UnblockCycles             32511990                       # Number of cycles rename is unblocking
system.cpu0.rename.UndoneMaps                50255452                       # Number of HB maps that are undone due to squashing
system.cpu0.rename.fp_rename_lookups               47                       # Number of floating rename lookups
system.cpu0.rename.int_rename_lookups      1375669370                       # Number of integer rename lookups
system.cpu0.rename.serializeStallCycles        132340                       # count of cycles rename stalled for serializing inst
system.cpu0.rename.serializingInsts              4660                       # count of serializing insts renamed
system.cpu0.rename.skidInsts                 24502988                       # count of insts added to the skid buffer
system.cpu0.rename.tempSerializingInsts          4647                       # count of temporary serializing insts renamed
system.cpu0.rob.rob_reads                  2815666834                       # The number of ROB reads
system.cpu0.rob.rob_writes                 2231464046                       # The number of ROB writes
system.cpu0.timesIdled                       19275472                       # Number of times that the entire CPU went into an idle state and unscheduled itself
system.cpu0.workload.numSyscalls                 1470                       # Number of system calls
system.cpu1.branchPred.BTBCorrect                   0                       # Number of correct BTB predictions (this stat may not work properly.
system.cpu1.branchPred.BTBHitPct            88.749849                       # BTB Hit Percentage
system.cpu1.branchPred.BTBHits               10123295                       # Number of BTB hits
system.cpu1.branchPred.BTBLookups            11406549                       # Number of BTB lookups
system.cpu1.branchPred.RASInCorrect                 0                       # Number of incorrect RAS predictions.
system.cpu1.branchPred.condIncorrect          2149655                       # Number of conditional branches incorrect
system.cpu1.branchPred.condPredicted         19195426                       # Number of conditional branches predicted
system.cpu1.branchPred.indirectHits            320605                       # Number of indirect target hits.
system.cpu1.branchPred.indirectLookups         670643                       # Number of indirect predictor lookups.
system.cpu1.branchPred.indirectMisses          350038                       # Number of indirect misses.
system.cpu1.branchPred.lookups               20877594                       # Number of BP lookups
system.cpu1.branchPred.usedRAS                      0                       # Number of times the RAS was used to get a target.
system.cpu1.branchPredindirectMispredicted         4796                       # Number of mispredicted indirect branches.
system.cpu1.commit.amos                       1811199                       # Number of atomic instructions committed
system.cpu1.commit.branchMispredicts          1352931                       # The number of times a branch was mispredicted
system.cpu1.commit.branches                  12204033                       # Number of branches committed
system.cpu1.commit.bw_lim_events              1080557                       # number cycles where commit BW limit reached
system.cpu1.commit.commitNonSpecStalls        5434256                       # The number of times commit has been forced to stall to communicate backwards
system.cpu1.commit.commitSquashedInsts       20932413                       # The number of squashed insts skipped by commit
system.cpu1.commit.committedInsts            55085124                       # Number of instructions committed
system.cpu1.commit.committedOps              56896497                       # Number of ops (including micro ops) committed
system.cpu1.commit.committed_per_cycle::samples    327008984                       # Number of insts commited each cycle
system.cpu1.commit.committed_per_cycle::mean     0.173991                       # Number of insts commited each cycle
system.cpu1.commit.committed_per_cycle::stdev     0.809332                       # Number of insts commited each cycle
system.cpu1.commit.committed_per_cycle::underflows            0      0.00%      0.00% # Number of insts commited each cycle
system.cpu1.commit.committed_per_cycle::0    302885286     92.62%     92.62% # Number of insts commited each cycle
system.cpu1.commit.committed_per_cycle::1     12071100      3.69%     96.31% # Number of insts commited each cycle
system.cpu1.commit.committed_per_cycle::2      4101138      1.25%     97.57% # Number of insts commited each cycle
system.cpu1.commit.committed_per_cycle::3      3765035      1.15%     98.72% # Number of insts commited each cycle
system.cpu1.commit.committed_per_cycle::4       914255      0.28%     99.00% # Number of insts commited each cycle
system.cpu1.commit.committed_per_cycle::5       327080      0.10%     99.10% # Number of insts commited each cycle
system.cpu1.commit.committed_per_cycle::6      1660591      0.51%     99.61% # Number of insts commited each cycle
system.cpu1.commit.committed_per_cycle::7       203942      0.06%     99.67% # Number of insts commited each cycle
system.cpu1.commit.committed_per_cycle::8      1080557      0.33%    100.00% # Number of insts commited each cycle
system.cpu1.commit.committed_per_cycle::overflows            0      0.00%    100.00% # Number of insts commited each cycle
system.cpu1.commit.committed_per_cycle::min_value            0                       # Number of insts commited each cycle
system.cpu1.commit.committed_per_cycle::max_value            8                       # Number of insts commited each cycle
system.cpu1.commit.committed_per_cycle::total    327008984                       # Number of insts commited each cycle
system.cpu1.commit.fp_insts                        12                       # Number of committed floating point instructions.
system.cpu1.commit.function_calls              502720                       # Number of function calls committed.
system.cpu1.commit.int_insts                 52982199                       # Number of committed integer instructions.
system.cpu1.commit.loads                     16127227                       # Number of loads committed
system.cpu1.commit.membars                    3622516                       # Number of memory barriers committed
system.cpu1.commit.op_class_0::No_OpClass      3622516      6.37%      6.37% # Class of committed instruction
system.cpu1.commit.op_class_0::IntAlu        32016851     56.27%     62.64% # Class of committed instruction
system.cpu1.commit.op_class_0::IntMult             43      0.00%     62.64% # Class of committed instruction
system.cpu1.commit.op_class_0::IntDiv              86      0.00%     62.64% # Class of committed instruction
system.cpu1.commit.op_class_0::FloatAdd             0      0.00%     62.64% # Class of committed instruction
system.cpu1.commit.op_class_0::FloatCmp             0      0.00%     62.64% # Class of committed instruction
system.cpu1.commit.op_class_0::FloatCvt             0      0.00%     62.64% # Class of committed instruction
system.cpu1.commit.op_class_0::FloatMult            0      0.00%     62.64% # Class of committed instruction
system.cpu1.commit.op_class_0::FloatMultAcc            0      0.00%     62.64% # Class of committed instruction
system.cpu1.commit.op_class_0::FloatDiv             0      0.00%     62.64% # Class of committed instruction
system.cpu1.commit.op_class_0::FloatMisc            0      0.00%     62.64% # Class of committed instruction
system.cpu1.commit.op_class_0::FloatSqrt            0      0.00%     62.64% # Class of committed instruction
system.cpu1.commit.op_class_0::SimdAdd              0      0.00%     62.64% # Class of committed instruction
system.cpu1.commit.op_class_0::SimdAddAcc            0      0.00%     62.64% # Class of committed instruction
system.cpu1.commit.op_class_0::SimdAlu              0      0.00%     62.64% # Class of committed instruction
system.cpu1.commit.op_class_0::SimdCmp              0      0.00%     62.64% # Class of committed instruction
system.cpu1.commit.op_class_0::SimdCvt              0      0.00%     62.64% # Class of committed instruction
system.cpu1.commit.op_class_0::SimdMisc             0      0.00%     62.64% # Class of committed instruction
system.cpu1.commit.op_class_0::SimdMult             0      0.00%     62.64% # Class of committed instruction
system.cpu1.commit.op_class_0::SimdMultAcc            0      0.00%     62.64% # Class of committed instruction
system.cpu1.commit.op_class_0::SimdShift            0      0.00%     62.64% # Class of committed instruction
system.cpu1.commit.op_class_0::SimdShiftAcc            0      0.00%     62.64% # Class of committed instruction
system.cpu1.commit.op_class_0::SimdDiv              0      0.00%     62.64% # Class of committed instruction
system.cpu1.commit.op_class_0::SimdSqrt             0      0.00%     62.64% # Class of committed instruction
system.cpu1.commit.op_class_0::SimdFloatAdd            0      0.00%     62.64% # Class of committed instruction
system.cpu1.commit.op_class_0::SimdFloatAlu            0      0.00%     62.64% # Class of committed instruction
system.cpu1.commit.op_class_0::SimdFloatCmp            0      0.00%     62.64% # Class of committed instruction
system.cpu1.commit.op_class_0::SimdFloatCvt            0      0.00%     62.64% # Class of committed instruction
system.cpu1.commit.op_class_0::SimdFloatDiv            0      0.00%     62.64% # Class of committed instruction
system.cpu1.commit.op_class_0::SimdFloatMisc            0      0.00%     62.64% # Class of committed instruction
system.cpu1.commit.op_class_0::SimdFloatMult            0      0.00%     62.64% # Class of committed instruction
system.cpu1.commit.op_class_0::SimdFloatMultAcc            0      0.00%     62.64% # Class of committed instruction
system.cpu1.commit.op_class_0::SimdFloatSqrt            0      0.00%     62.64% # Class of committed instruction
system.cpu1.commit.op_class_0::SimdReduceAdd            0      0.00%     62.64% # Class of committed instruction
system.cpu1.commit.op_class_0::SimdReduceAlu            0      0.00%     62.64% # Class of committed instruction
system.cpu1.commit.op_class_0::SimdReduceCmp            0      0.00%     62.64% # Class of committed instruction
system.cpu1.commit.op_class_0::SimdFloatReduceAdd            0      0.00%     62.64% # Class of committed instruction
system.cpu1.commit.op_class_0::SimdFloatReduceCmp            0      0.00%     62.64% # Class of committed instruction
system.cpu1.commit.op_class_0::SimdAes              0      0.00%     62.64% # Class of committed instruction
system.cpu1.commit.op_class_0::SimdAesMix            0      0.00%     62.64% # Class of committed instruction
system.cpu1.commit.op_class_0::SimdSha1Hash            0      0.00%     62.64% # Class of committed instruction
system.cpu1.commit.op_class_0::SimdSha1Hash2            0      0.00%     62.64% # Class of committed instruction
system.cpu1.commit.op_class_0::SimdSha256Hash            0      0.00%     62.64% # Class of committed instruction
system.cpu1.commit.op_class_0::SimdSha256Hash2            0      0.00%     62.64% # Class of committed instruction
system.cpu1.commit.op_class_0::SimdShaSigma2            0      0.00%     62.64% # Class of committed instruction
system.cpu1.commit.op_class_0::SimdShaSigma3            0      0.00%     62.64% # Class of committed instruction
system.cpu1.commit.op_class_0::SimdPredAlu            0      0.00%     62.64% # Class of committed instruction
system.cpu1.commit.op_class_0::MemRead       17938426     31.53%     94.17% # Class of committed instruction
system.cpu1.commit.op_class_0::MemWrite       3318563      5.83%    100.00% # Class of committed instruction
system.cpu1.commit.op_class_0::FloatMemRead            0      0.00%    100.00% # Class of committed instruction
system.cpu1.commit.op_class_0::FloatMemWrite           12      0.00%    100.00% # Class of committed instruction
system.cpu1.commit.op_class_0::IprAccess            0      0.00%    100.00% # Class of committed instruction
system.cpu1.commit.op_class_0::InstPrefetch            0      0.00%    100.00% # Class of committed instruction
system.cpu1.commit.op_class_0::total         56896497                       # Class of committed instruction
system.cpu1.commit.refs                      21257001                       # Number of memory references committed
system.cpu1.commit.swp_count                        0                       # Number of s/w prefetches committed
system.cpu1.commit.vec_insts                        0                       # Number of committed Vector instructions.
system.cpu1.committedInsts                   55085124                       # Number of Instructions Simulated
system.cpu1.committedOps                     56896497                       # Number of Ops (including micro ops) Simulated
system.cpu1.cpi                              6.016383                       # CPI: Cycles Per Instruction
system.cpu1.cpi_total                        6.016383                       # CPI: Total CPI of All Threads
system.cpu1.decode.BlockedCycles            279286623                       # Number of cycles decode is blocked
system.cpu1.decode.BranchMispred               802706                       # Number of times decode detected a branch misprediction
system.cpu1.decode.BranchResolved             8641096                       # Number of times decode resolved a branch
system.cpu1.decode.DecodedInsts              86287551                       # Number of instructions handled by decode
system.cpu1.decode.IdleCycles                14885561                       # Number of cycles decode is idle
system.cpu1.decode.RunCycles                 30752285                       # Number of cycles decode is running
system.cpu1.decode.SquashCycles               1353416                       # Number of cycles decode is squashing
system.cpu1.decode.SquashedInsts              1170660                       # Number of squashed instructions handled by decode
system.cpu1.decode.UnblockCycles              4340912                       # Number of cycles decode is unblocking
system.cpu1.dtb.accesses                            0                       # DTB accesses
system.cpu1.dtb.hits                                0                       # DTB hits
system.cpu1.dtb.misses                              0                       # DTB misses
system.cpu1.dtb.read_accesses                       0                       # DTB read accesses
system.cpu1.dtb.read_hits                           0                       # DTB read hits
system.cpu1.dtb.read_misses                         0                       # DTB read misses
system.cpu1.dtb.write_accesses                      0                       # DTB write accesses
system.cpu1.dtb.write_hits                          0                       # DTB write hits
system.cpu1.dtb.write_misses                        0                       # DTB write misses
system.cpu1.fetch.Branches                   20877594                       # Number of branches that fetch encountered
system.cpu1.fetch.CacheLines                 14824687                       # Number of cache lines fetched
system.cpu1.fetch.Cycles                    311785996                       # Number of cycles fetch has run and was not squashing or blocked
system.cpu1.fetch.IcacheSquashes               127309                       # Number of outstanding Icache misses that were squashed
system.cpu1.fetch.Insts                      99926039                       # Number of instructions fetch has processed
system.cpu1.fetch.MiscStallCycles                   1                       # Number of cycles fetch has spent waiting on interrupts, or bad addresses, or out of MSHRs
system.cpu1.fetch.SquashCycles                4300280                       # Number of cycles fetch has spent squashing
system.cpu1.fetch.branchRate                 0.062996                       # Number of branch fetches per cycle
system.cpu1.fetch.icacheStallCycles          16682660                       # Number of cycles fetch is stalled on an Icache miss
system.cpu1.fetch.predictedBranches          10443900                       # Number of branches that fetch has predicted taken
system.cpu1.fetch.rate                       0.301515                       # Number of inst fetches per cycle
system.cpu1.fetch.rateDist::samples         330618797                       # Number of instructions fetched each cycle (Total)
system.cpu1.fetch.rateDist::mean             0.313586                       # Number of instructions fetched each cycle (Total)
system.cpu1.fetch.rateDist::stdev            0.801059                       # Number of instructions fetched each cycle (Total)
system.cpu1.fetch.rateDist::underflows              0      0.00%      0.00% # Number of instructions fetched each cycle (Total)
system.cpu1.fetch.rateDist::0               269522106     81.52%     81.52% # Number of instructions fetched each cycle (Total)
system.cpu1.fetch.rateDist::1                35888562     10.85%     92.38% # Number of instructions fetched each cycle (Total)
system.cpu1.fetch.rateDist::2                14694929      4.44%     96.82% # Number of instructions fetched each cycle (Total)
system.cpu1.fetch.rateDist::3                 6255016      1.89%     98.71% # Number of instructions fetched each cycle (Total)
system.cpu1.fetch.rateDist::4                 2726942      0.82%     99.54% # Number of instructions fetched each cycle (Total)
system.cpu1.fetch.rateDist::5                  468285      0.14%     99.68% # Number of instructions fetched each cycle (Total)
system.cpu1.fetch.rateDist::6                 1059362      0.32%    100.00% # Number of instructions fetched each cycle (Total)
system.cpu1.fetch.rateDist::7                      12      0.00%    100.00% # Number of instructions fetched each cycle (Total)
system.cpu1.fetch.rateDist::8                    3583      0.00%    100.00% # Number of instructions fetched each cycle (Total)
system.cpu1.fetch.rateDist::overflows               0      0.00%    100.00% # Number of instructions fetched each cycle (Total)
system.cpu1.fetch.rateDist::min_value               0                       # Number of instructions fetched each cycle (Total)
system.cpu1.fetch.rateDist::max_value               8                       # Number of instructions fetched each cycle (Total)
system.cpu1.fetch.rateDist::total           330618797                       # Number of instructions fetched each cycle (Total)
system.cpu1.fp_regfile_reads                       12                       # number of floating regfile reads
system.cpu1.idleCycles                         794407                       # Total number of cycles that the CPU has spent unscheduled due to idling
system.cpu1.iew.branchMispredicts             1399245                       # Number of branch mispredicts detected at execute
system.cpu1.iew.exec_branches                14600308                       # Number of branches executed
system.cpu1.iew.exec_nop                            0                       # number of nop insts executed
system.cpu1.iew.exec_rate                    0.191329                       # Inst execution rate
system.cpu1.iew.exec_refs                    22291861                       # number of memory reference insts executed
system.cpu1.iew.exec_stores                   5212521                       # Number of stores executed
system.cpu1.iew.exec_swp                            0                       # number of swp insts executed
system.cpu1.iew.iewBlockCycles              241120428                       # Number of cycles IEW is blocking
system.cpu1.iew.iewDispLoadInsts             22119005                       # Number of dispatched load instructions
system.cpu1.iew.iewDispNonSpecInsts           2712066                       # Number of dispatched non-speculative instructions
system.cpu1.iew.iewDispSquashedInsts          2918609                       # Number of squashed instructions skipped by dispatch
system.cpu1.iew.iewDispStoreInsts             7094786                       # Number of dispatched store instructions
system.cpu1.iew.iewDispatchedInsts           77821598                       # Number of instructions dispatched to IQ
system.cpu1.iew.iewExecLoadInsts             17079340                       # Number of load instructions executed
system.cpu1.iew.iewExecSquashedInsts           981019                       # Number of squashed instructions skipped in execute
system.cpu1.iew.iewExecutedInsts             63409082                       # Number of executed instructions
system.cpu1.iew.iewIQFullEvents               1728494                       # Number of times the IQ has become full, causing a stall
system.cpu1.iew.iewIdleCycles                       0                       # Number of cycles IEW is idle
system.cpu1.iew.iewLSQFullEvents              1360518                       # Number of times the LSQ has become full, causing a stall
system.cpu1.iew.iewSquashCycles               1353416                       # Number of cycles IEW is squashing
system.cpu1.iew.iewUnblockCycles              4802334                       # Number of cycles IEW is unblocking
system.cpu1.iew.lsq.thread0.blockedLoads            0                       # Number of blocked loads due to partial load-store forwarding
system.cpu1.iew.lsq.thread0.cacheBlocked        18887                       # Number of times an access to memory failed due to the cache being blocked
system.cpu1.iew.lsq.thread0.forwLoads          295792                       # Number of loads that had data forwarded from stores
system.cpu1.iew.lsq.thread0.ignoredResponses        10006                       # Number of memory responses ignored because the instruction is squashed
system.cpu1.iew.lsq.thread0.invAddrLoads            0                       # Number of loads ignored due to an invalid address
system.cpu1.iew.lsq.thread0.invAddrSwpfs            0                       # Number of software prefetches ignored due to an invalid address
system.cpu1.iew.lsq.thread0.memOrderViolation          518                       # Number of memory ordering violations
system.cpu1.iew.lsq.thread0.rescheduledLoads         2650                       # Number of loads that were rescheduled
system.cpu1.iew.lsq.thread0.squashedLoads      5991778                       # Number of loads squashed
system.cpu1.iew.lsq.thread0.squashedStores      1965012                       # Number of stores squashed
system.cpu1.iew.memOrderViolationEvents           518                       # Number of memory order violations
system.cpu1.iew.predictedNotTakenIncorrect       196355                       # Number of branches that were predicted not taken incorrectly
system.cpu1.iew.predictedTakenIncorrect       1202890                       # Number of branches that were predicted taken incorrectly
system.cpu1.iew.wb_consumers                 36535681                       # num instructions consuming a value
system.cpu1.iew.wb_count                     63042024                       # cumulative count of insts written-back
system.cpu1.iew.wb_fanout                    0.838184                       # average fanout of values written-back
system.cpu1.iew.wb_producers                 30623641                       # num instructions producing a value
system.cpu1.iew.wb_rate                      0.190222                       # insts written-back per cycle
system.cpu1.iew.wb_sent                      63055220                       # cumulative count of insts sent to commit
system.cpu1.int_regfile_reads                79227427                       # number of integer regfile reads
system.cpu1.int_regfile_writes               41707831                       # number of integer regfile writes
system.cpu1.ipc                              0.166213                       # IPC: Instructions Per Cycle
system.cpu1.ipc_total                        0.166213                       # IPC: Total IPC of All Threads
system.cpu1.iq.FU_type_0::No_OpClass          3622618      5.63%      5.63% # Type of FU issued
system.cpu1.iq.FU_type_0::IntAlu             38370064     59.59%     65.22% # Type of FU issued
system.cpu1.iq.FU_type_0::IntMult                  46      0.00%     65.22% # Type of FU issued
system.cpu1.iq.FU_type_0::IntDiv                   86      0.00%     65.22% # Type of FU issued
system.cpu1.iq.FU_type_0::FloatAdd                  0      0.00%     65.22% # Type of FU issued
system.cpu1.iq.FU_type_0::FloatCmp                  0      0.00%     65.22% # Type of FU issued
system.cpu1.iq.FU_type_0::FloatCvt                  0      0.00%     65.22% # Type of FU issued
system.cpu1.iq.FU_type_0::FloatMult                 0      0.00%     65.22% # Type of FU issued
system.cpu1.iq.FU_type_0::FloatMultAcc              0      0.00%     65.22% # Type of FU issued
system.cpu1.iq.FU_type_0::FloatDiv                  0      0.00%     65.22% # Type of FU issued
system.cpu1.iq.FU_type_0::FloatMisc                 0      0.00%     65.22% # Type of FU issued
system.cpu1.iq.FU_type_0::FloatSqrt                 0      0.00%     65.22% # Type of FU issued
system.cpu1.iq.FU_type_0::SimdAdd                   0      0.00%     65.22% # Type of FU issued
system.cpu1.iq.FU_type_0::SimdAddAcc                0      0.00%     65.22% # Type of FU issued
system.cpu1.iq.FU_type_0::SimdAlu                   0      0.00%     65.22% # Type of FU issued
system.cpu1.iq.FU_type_0::SimdCmp                   0      0.00%     65.22% # Type of FU issued
system.cpu1.iq.FU_type_0::SimdCvt                   0      0.00%     65.22% # Type of FU issued
system.cpu1.iq.FU_type_0::SimdMisc                  0      0.00%     65.22% # Type of FU issued
system.cpu1.iq.FU_type_0::SimdMult                  0      0.00%     65.22% # Type of FU issued
system.cpu1.iq.FU_type_0::SimdMultAcc               0      0.00%     65.22% # Type of FU issued
system.cpu1.iq.FU_type_0::SimdShift                 0      0.00%     65.22% # Type of FU issued
system.cpu1.iq.FU_type_0::SimdShiftAcc              0      0.00%     65.22% # Type of FU issued
system.cpu1.iq.FU_type_0::SimdDiv                   0      0.00%     65.22% # Type of FU issued
system.cpu1.iq.FU_type_0::SimdSqrt                  0      0.00%     65.22% # Type of FU issued
system.cpu1.iq.FU_type_0::SimdFloatAdd              0      0.00%     65.22% # Type of FU issued
system.cpu1.iq.FU_type_0::SimdFloatAlu              0      0.00%     65.22% # Type of FU issued
system.cpu1.iq.FU_type_0::SimdFloatCmp              0      0.00%     65.22% # Type of FU issued
system.cpu1.iq.FU_type_0::SimdFloatCvt              0      0.00%     65.22% # Type of FU issued
system.cpu1.iq.FU_type_0::SimdFloatDiv              0      0.00%     65.22% # Type of FU issued
system.cpu1.iq.FU_type_0::SimdFloatMisc             0      0.00%     65.22% # Type of FU issued
system.cpu1.iq.FU_type_0::SimdFloatMult             0      0.00%     65.22% # Type of FU issued
system.cpu1.iq.FU_type_0::SimdFloatMultAcc            0      0.00%     65.22% # Type of FU issued
system.cpu1.iq.FU_type_0::SimdFloatSqrt             0      0.00%     65.22% # Type of FU issued
system.cpu1.iq.FU_type_0::SimdReduceAdd             0      0.00%     65.22% # Type of FU issued
system.cpu1.iq.FU_type_0::SimdReduceAlu             0      0.00%     65.22% # Type of FU issued
system.cpu1.iq.FU_type_0::SimdReduceCmp             0      0.00%     65.22% # Type of FU issued
system.cpu1.iq.FU_type_0::SimdFloatReduceAdd            0      0.00%     65.22% # Type of FU issued
system.cpu1.iq.FU_type_0::SimdFloatReduceCmp            0      0.00%     65.22% # Type of FU issued
system.cpu1.iq.FU_type_0::SimdAes                   0      0.00%     65.22% # Type of FU issued
system.cpu1.iq.FU_type_0::SimdAesMix                0      0.00%     65.22% # Type of FU issued
system.cpu1.iq.FU_type_0::SimdSha1Hash              0      0.00%     65.22% # Type of FU issued
system.cpu1.iq.FU_type_0::SimdSha1Hash2             0      0.00%     65.22% # Type of FU issued
system.cpu1.iq.FU_type_0::SimdSha256Hash            0      0.00%     65.22% # Type of FU issued
system.cpu1.iq.FU_type_0::SimdSha256Hash2            0      0.00%     65.22% # Type of FU issued
system.cpu1.iq.FU_type_0::SimdShaSigma2             0      0.00%     65.22% # Type of FU issued
system.cpu1.iq.FU_type_0::SimdShaSigma3             0      0.00%     65.22% # Type of FU issued
system.cpu1.iq.FU_type_0::SimdPredAlu               0      0.00%     65.22% # Type of FU issued
system.cpu1.iq.FU_type_0::MemRead            18981849     29.48%     94.70% # Type of FU issued
system.cpu1.iq.FU_type_0::MemWrite            3415426      5.30%    100.00% # Type of FU issued
system.cpu1.iq.FU_type_0::FloatMemRead              0      0.00%    100.00% # Type of FU issued
system.cpu1.iq.FU_type_0::FloatMemWrite            12      0.00%    100.00% # Type of FU issued
system.cpu1.iq.FU_type_0::IprAccess                 0      0.00%    100.00% # Type of FU issued
system.cpu1.iq.FU_type_0::InstPrefetch              0      0.00%    100.00% # Type of FU issued
system.cpu1.iq.FU_type_0::total              64390101                       # Type of FU issued
system.cpu1.iq.fp_alu_accesses                     16                       # Number of floating point alu accesses
system.cpu1.iq.fp_inst_queue_reads                 28                       # Number of floating instruction queue reads
system.cpu1.iq.fp_inst_queue_wakeup_accesses           12                       # Number of floating instruction queue wakeup accesses
system.cpu1.iq.fp_inst_queue_writes                12                       # Number of floating instruction queue writes
system.cpu1.iq.fu_busy_cnt                    1851232                       # FU busy when requested
system.cpu1.iq.fu_busy_rate                  0.028750                       # FU busy rate (busy events/executed inst)
system.cpu1.iq.fu_full::No_OpClass                  0      0.00%      0.00% # attempts to use FU when none available
system.cpu1.iq.fu_full::IntAlu                 264660     14.30%     14.30% # attempts to use FU when none available
system.cpu1.iq.fu_full::IntMult                     0      0.00%     14.30% # attempts to use FU when none available
system.cpu1.iq.fu_full::IntDiv                      0      0.00%     14.30% # attempts to use FU when none available
system.cpu1.iq.fu_full::FloatAdd                    0      0.00%     14.30% # attempts to use FU when none available
system.cpu1.iq.fu_full::FloatCmp                    0      0.00%     14.30% # attempts to use FU when none available
system.cpu1.iq.fu_full::FloatCvt                    0      0.00%     14.30% # attempts to use FU when none available
system.cpu1.iq.fu_full::FloatMult                   0      0.00%     14.30% # attempts to use FU when none available
system.cpu1.iq.fu_full::FloatMultAcc                0      0.00%     14.30% # attempts to use FU when none available
system.cpu1.iq.fu_full::FloatDiv                    0      0.00%     14.30% # attempts to use FU when none available
system.cpu1.iq.fu_full::FloatMisc                   0      0.00%     14.30% # attempts to use FU when none available
system.cpu1.iq.fu_full::FloatSqrt                   0      0.00%     14.30% # attempts to use FU when none available
system.cpu1.iq.fu_full::SimdAdd                     0      0.00%     14.30% # attempts to use FU when none available
system.cpu1.iq.fu_full::SimdAddAcc                  0      0.00%     14.30% # attempts to use FU when none available
system.cpu1.iq.fu_full::SimdAlu                     0      0.00%     14.30% # attempts to use FU when none available
system.cpu1.iq.fu_full::SimdCmp                     0      0.00%     14.30% # attempts to use FU when none available
system.cpu1.iq.fu_full::SimdCvt                     0      0.00%     14.30% # attempts to use FU when none available
system.cpu1.iq.fu_full::SimdMisc                    0      0.00%     14.30% # attempts to use FU when none available
system.cpu1.iq.fu_full::SimdMult                    0      0.00%     14.30% # attempts to use FU when none available
system.cpu1.iq.fu_full::SimdMultAcc                 0      0.00%     14.30% # attempts to use FU when none available
system.cpu1.iq.fu_full::SimdShift                   0      0.00%     14.30% # attempts to use FU when none available
system.cpu1.iq.fu_full::SimdShiftAcc                0      0.00%     14.30% # attempts to use FU when none available
system.cpu1.iq.fu_full::SimdDiv                     0      0.00%     14.30% # attempts to use FU when none available
system.cpu1.iq.fu_full::SimdSqrt                    0      0.00%     14.30% # attempts to use FU when none available
system.cpu1.iq.fu_full::SimdFloatAdd                0      0.00%     14.30% # attempts to use FU when none available
system.cpu1.iq.fu_full::SimdFloatAlu                0      0.00%     14.30% # attempts to use FU when none available
system.cpu1.iq.fu_full::SimdFloatCmp                0      0.00%     14.30% # attempts to use FU when none available
system.cpu1.iq.fu_full::SimdFloatCvt                0      0.00%     14.30% # attempts to use FU when none available
system.cpu1.iq.fu_full::SimdFloatDiv                0      0.00%     14.30% # attempts to use FU when none available
system.cpu1.iq.fu_full::SimdFloatMisc               0      0.00%     14.30% # attempts to use FU when none available
system.cpu1.iq.fu_full::SimdFloatMult               0      0.00%     14.30% # attempts to use FU when none available
system.cpu1.iq.fu_full::SimdFloatMultAcc            0      0.00%     14.30% # attempts to use FU when none available
system.cpu1.iq.fu_full::SimdFloatSqrt               0      0.00%     14.30% # attempts to use FU when none available
system.cpu1.iq.fu_full::SimdReduceAdd               0      0.00%     14.30% # attempts to use FU when none available
system.cpu1.iq.fu_full::SimdReduceAlu               0      0.00%     14.30% # attempts to use FU when none available
system.cpu1.iq.fu_full::SimdReduceCmp               0      0.00%     14.30% # attempts to use FU when none available
system.cpu1.iq.fu_full::SimdFloatReduceAdd            0      0.00%     14.30% # attempts to use FU when none available
system.cpu1.iq.fu_full::SimdFloatReduceCmp            0      0.00%     14.30% # attempts to use FU when none available
system.cpu1.iq.fu_full::SimdAes                     0      0.00%     14.30% # attempts to use FU when none available
system.cpu1.iq.fu_full::SimdAesMix                  0      0.00%     14.30% # attempts to use FU when none available
system.cpu1.iq.fu_full::SimdSha1Hash                0      0.00%     14.30% # attempts to use FU when none available
system.cpu1.iq.fu_full::SimdSha1Hash2               0      0.00%     14.30% # attempts to use FU when none available
system.cpu1.iq.fu_full::SimdSha256Hash              0      0.00%     14.30% # attempts to use FU when none available
system.cpu1.iq.fu_full::SimdSha256Hash2             0      0.00%     14.30% # attempts to use FU when none available
system.cpu1.iq.fu_full::SimdShaSigma2               0      0.00%     14.30% # attempts to use FU when none available
system.cpu1.iq.fu_full::SimdShaSigma3               0      0.00%     14.30% # attempts to use FU when none available
system.cpu1.iq.fu_full::SimdPredAlu                 0      0.00%     14.30% # attempts to use FU when none available
system.cpu1.iq.fu_full::MemRead               1434320     77.48%     91.78% # attempts to use FU when none available
system.cpu1.iq.fu_full::MemWrite               152248      8.22%    100.00% # attempts to use FU when none available
[...]
system.cpu1.dcache.WriteReq_hits::.cpu1.data      1403997                       # number of WriteReq hits
system.cpu1.dcache.WriteReq_hits::total       1403997                       # number of WriteReq hits
system.cpu1.dcache.WriteReq_misses::.cpu1.data       458980                       # number of WriteReq misses
system.cpu1.dcache.WriteReq_misses::total       458980                       # number of WriteReq misses
system.cpu1.dcache.WriteReq_miss_latency::.cpu1.data  30031976368                       # number of WriteReq miss cycles
system.cpu1.dcache.WriteReq_miss_latency::total  30031976368                       # number of WriteReq miss cycles
system.cpu1.dcache.WriteReq_accesses::.cpu1.data      1862977                       # number of WriteReq accesses(hits+misses)
system.cpu1.dcache.WriteReq_accesses::total      1862977                       # number of WriteReq accesses(hits+misses)
system.cpu1.dcache.WriteReq_miss_rate::.cpu1.data     0.246369                       # miss rate for WriteReq accesses
system.cpu1.dcache.WriteReq_miss_rate::total     0.246369                       # miss rate for WriteReq accesses
system.cpu1.dcache.WriteReq_avg_miss_latency::.cpu1.data 65431.993481                       # average WriteReq miss latency
system.cpu1.dcache.WriteReq_avg_miss_latency::total 65431.993481                       # average WriteReq miss latency
system.cpu1.dcache.WriteReq_mshr_hits::.cpu1.data       368900                       # number of WriteReq MSHR hits
system.cpu1.dcache.WriteReq_mshr_hits::total       368900                       # number of WriteReq MSHR hits
system.cpu1.dcache.WriteReq_mshr_misses::.cpu1.data        90080                       # number of WriteReq MSHR misses
system.cpu1.dcache.WriteReq_mshr_misses::total        90080                       # number of WriteReq MSHR misses
system.cpu1.dcache.WriteReq_mshr_miss_latency::.cpu1.data   4547473948                       # number of WriteReq MSHR miss cycles
system.cpu1.dcache.WriteReq_mshr_miss_latency::total   4547473948                       # number of WriteReq MSHR miss cycles
system.cpu1.dcache.WriteReq_mshr_miss_rate::.cpu1.data     0.048353                       # mshr miss rate for WriteReq accesses
system.cpu1.dcache.WriteReq_mshr_miss_rate::total     0.048353                       # mshr miss rate for WriteReq accesses
system.cpu1.dcache.WriteReq_avg_mshr_miss_latency::.cpu1.data 50482.614876                       # average WriteReq mshr miss latency
system.cpu1.dcache.WriteReq_avg_mshr_miss_latency::total 50482.614876                       # average WriteReq mshr miss latency
system.cpu1.dcache.LoadLockedReq_hits::.cpu1.data        67217                       # number of LoadLockedReq hits
system.cpu1.dcache.LoadLockedReq_hits::total        67217                       # number of LoadLockedReq hits
system.cpu1.dcache.LoadLockedReq_misses::.cpu1.data          836                       # number of LoadLockedReq misses
system.cpu1.dcache.LoadLockedReq_misses::total          836                       # number of LoadLockedReq misses
system.cpu1.dcache.LoadLockedReq_miss_latency::.cpu1.data     33033500                       # number of LoadLockedReq miss cycles
system.cpu1.dcache.LoadLockedReq_miss_latency::total     33033500                       # number of LoadLockedReq miss cycles
system.cpu1.dcache.LoadLockedReq_accesses::.cpu1.data        68053                       # number of LoadLockedReq accesses(hits+misses)
system.cpu1.dcache.LoadLockedReq_accesses::total        68053                       # number of LoadLockedReq accesses(hits+misses)
system.cpu1.dcache.LoadLockedReq_miss_rate::.cpu1.data     0.012285                       # miss rate for LoadLockedReq accesses
system.cpu1.dcache.LoadLockedReq_miss_rate::total     0.012285                       # miss rate for LoadLockedReq accesses
system.cpu1.dcache.LoadLockedReq_avg_miss_latency::.cpu1.data 39513.755981                       # average LoadLockedReq miss latency
system.cpu1.dcache.LoadLockedReq_avg_miss_latency::total 39513.755981                       # average LoadLockedReq miss latency
system.cpu1.dcache.LoadLockedReq_mshr_hits::.cpu1.data          224                       # number of LoadLockedReq MSHR hits
system.cpu1.dcache.LoadLockedReq_mshr_hits::total          224                       # number of LoadLockedReq MSHR hits
system.cpu1.dcache.LoadLockedReq_mshr_misses::.cpu1.data          612                       # number of LoadLockedReq MSHR misses
system.cpu1.dcache.LoadLockedReq_mshr_misses::total          612                       # number of LoadLockedReq MSHR misses
system.cpu1.dcache.LoadLockedReq_mshr_miss_latency::.cpu1.data     18461000                       # number of LoadLockedReq MSHR miss cycles
system.cpu1.dcache.LoadLockedReq_mshr_miss_latency::total     18461000                       # number of LoadLockedReq MSHR miss cycles
system.cpu1.dcache.LoadLockedReq_mshr_miss_rate::.cpu1.data     0.008993                       # mshr miss rate for LoadLockedReq accesses
system.cpu1.dcache.LoadLockedReq_mshr_miss_rate::total     0.008993                       # mshr miss rate for LoadLockedReq accesses
system.cpu1.dcache.LoadLockedReq_avg_mshr_miss_latency::.cpu1.data 30165.032680                       # average LoadLockedReq mshr miss latency
system.cpu1.dcache.LoadLockedReq_avg_mshr_miss_latency::total 30165.032680                       # average LoadLockedReq mshr miss latency
system.cpu1.dcache.StoreCondReq_hits::.cpu1.data        63243                       # number of StoreCondReq hits
system.cpu1.dcache.StoreCondReq_hits::total        63243                       # number of StoreCondReq hits
system.cpu1.dcache.StoreCondReq_misses::.cpu1.data         4512                       # number of StoreCondReq misses
system.cpu1.dcache.StoreCondReq_misses::total         4512                       # number of StoreCondReq misses
system.cpu1.dcache.StoreCondReq_miss_latency::.cpu1.data     24650000                       # number of StoreCondReq miss cycles
system.cpu1.dcache.StoreCondReq_miss_latency::total     24650000                       # number of StoreCondReq miss cycles
system.cpu1.dcache.StoreCondReq_accesses::.cpu1.data        67755                       # number of StoreCondReq accesses(hits+misses)
system.cpu1.dcache.StoreCondReq_accesses::total        67755                       # number of StoreCondReq accesses(hits+misses)
system.cpu1.dcache.StoreCondReq_miss_rate::.cpu1.data     0.066593                       # miss rate for StoreCondReq accesses
system.cpu1.dcache.StoreCondReq_miss_rate::total     0.066593                       # miss rate for StoreCondReq accesses
system.cpu1.dcache.StoreCondReq_avg_miss_latency::.cpu1.data  5463.209220                       # average StoreCondReq miss latency
system.cpu1.dcache.StoreCondReq_avg_miss_latency::total  5463.209220                       # average StoreCondReq miss latency
system.cpu1.dcache.StoreCondReq_mshr_misses::.cpu1.data         4423                       # number of StoreCondReq MSHR misses
system.cpu1.dcache.StoreCondReq_mshr_misses::total         4423                       # number of StoreCondReq MSHR misses
system.cpu1.dcache.StoreCondReq_mshr_miss_latency::.cpu1.data     20263000                       # number of StoreCondReq MSHR miss cycles
system.cpu1.dcache.StoreCondReq_mshr_miss_latency::total     20263000                       # number of StoreCondReq MSHR miss cycles
system.cpu1.dcache.StoreCondReq_mshr_miss_rate::.cpu1.data     0.065279                       # mshr miss rate for StoreCondReq accesses
system.cpu1.dcache.StoreCondReq_mshr_miss_rate::total     0.065279                       # mshr miss rate for StoreCondReq accesses
system.cpu1.dcache.StoreCondReq_avg_mshr_miss_latency::.cpu1.data  4581.279674                       # average StoreCondReq mshr miss latency
system.cpu1.dcache.StoreCondReq_avg_mshr_miss_latency::total  4581.279674                       # average StoreCondReq mshr miss latency
system.cpu1.dcache.StoreCondFailReq_miss_latency::.cpu1.data       791500                       # number of StoreCondFailReq miss cycles
system.cpu1.dcache.StoreCondFailReq_miss_latency::total       791500                       # number of StoreCondFailReq miss cycles
system.cpu1.dcache.StoreCondFailReq_avg_miss_latency::.cpu1.data          inf                       # average StoreCondFailReq miss latency
system.cpu1.dcache.StoreCondFailReq_avg_miss_latency::total          inf                       # average StoreCondFailReq miss latency
system.cpu1.dcache.StoreCondFailReq_mshr_miss_latency::.cpu1.data       755500                       # number of StoreCondFailReq MSHR miss cycles
system.cpu1.dcache.StoreCondFailReq_mshr_miss_latency::total       755500                       # number of StoreCondFailReq MSHR miss cycles
system.cpu1.dcache.StoreCondFailReq_avg_mshr_miss_latency::.cpu1.data          inf                       # average StoreCondFailReq mshr miss latency
system.cpu1.dcache.StoreCondFailReq_avg_mshr_miss_latency::total          inf                       # average StoreCondFailReq mshr miss latency
system.cpu1.dcache.SwapReq_hits::.cpu1.data         1499                       # number of SwapReq hits
system.cpu1.dcache.SwapReq_hits::total           1499                       # number of SwapReq hits
system.cpu1.dcache.SwapReq_misses::.cpu1.data         2842                       # number of SwapReq misses
system.cpu1.dcache.SwapReq_misses::total         2842                       # number of SwapReq misses
system.cpu1.dcache.SwapReq_miss_latency::.cpu1.data    120441000                       # number of SwapReq miss cycles
system.cpu1.dcache.SwapReq_miss_latency::total    120441000                       # number of SwapReq miss cycles
system.cpu1.dcache.SwapReq_accesses::.cpu1.data         4341                       # number of SwapReq accesses(hits+misses)
system.cpu1.dcache.SwapReq_accesses::total         4341                       # number of SwapReq accesses(hits+misses)
system.cpu1.dcache.SwapReq_miss_rate::.cpu1.data     0.654688                       # miss rate for SwapReq accesses
system.cpu1.dcache.SwapReq_miss_rate::total     0.654688                       # miss rate for SwapReq accesses
system.cpu1.dcache.SwapReq_avg_miss_latency::.cpu1.data 42378.958480                       # average SwapReq miss latency
system.cpu1.dcache.SwapReq_avg_miss_latency::total 42378.958480                       # average SwapReq miss latency
system.cpu1.dcache.SwapReq_mshr_misses::.cpu1.data         2842                       # number of SwapReq MSHR misses
system.cpu1.dcache.SwapReq_mshr_misses::total         2842                       # number of SwapReq MSHR misses
system.cpu1.dcache.SwapReq_mshr_miss_latency::.cpu1.data    117599000                       # number of SwapReq MSHR miss cycles
system.cpu1.dcache.SwapReq_mshr_miss_latency::total    117599000                       # number of SwapReq MSHR miss cycles
system.cpu1.dcache.SwapReq_mshr_miss_rate::.cpu1.data     0.654688                       # mshr miss rate for SwapReq accesses
system.cpu1.dcache.SwapReq_mshr_miss_rate::total     0.654688                       # mshr miss rate for SwapReq accesses
system.cpu1.dcache.SwapReq_avg_mshr_miss_latency::.cpu1.data 41378.958480                       # average SwapReq mshr miss latency
system.cpu1.dcache.SwapReq_avg_mshr_miss_latency::total 41378.958480                       # average SwapReq mshr miss latency
system.cpu1.dcache.tags.pwrStateResidencyTicks::UNDEFINED  74417277500                       # Cumulative time (in ticks) in various power states
system.cpu1.dcache.tags.tagsinuse           31.125522                       # Cycle average of tags in use
system.cpu1.dcache.tags.total_refs           17221804                       # Total number of references to valid blocks.
system.cpu1.dcache.tags.sampled_refs          1474043                       # Sample count of references to valid blocks.
system.cpu1.dcache.tags.avg_refs            11.683380                       # Average number of references to valid blocks.
system.cpu1.dcache.tags.warmup_cycle                0                       # Cycle when the warmup percentage was hit.
system.cpu1.dcache.tags.occ_blocks::.cpu1.data    31.125522                       # Average occupied blocks per requestor
system.cpu1.dcache.tags.occ_percent::.cpu1.data     0.972673                       # Average percentage of cache occupancy
system.cpu1.dcache.tags.occ_percent::total     0.972673                       # Average percentage of cache occupancy
system.cpu1.dcache.tags.occ_task_id_blocks::1024           28                       # Occupied blocks per task id
system.cpu1.dcache.tags.age_task_id_blocks_1024::1           28                       # Occupied blocks per task id
system.cpu1.dcache.tags.occ_task_id_percent::1024     0.875000                       # Percentage of cache occupancy per task id
system.cpu1.dcache.tags.tag_accesses         45531216                       # Number of tag accesses
system.cpu1.dcache.tags.data_accesses        45531216                       # Number of data accesses
system.cpu_clk_domain.clock                       500                       # Clock period in ticks
system.tol2bus.pwrStateResidencyTicks::UNDEFINED  74417277500                       # Cumulative time (in ticks) in various power states
system.tol2bus.trans_dist::ReadResp           3052739                       # Transaction distribution
system.tol2bus.trans_dist::WritebackDirty       815942                       # Transaction distribution
system.tol2bus.trans_dist::WritebackClean      2675757                       # Transaction distribution
system.tol2bus.trans_dist::CleanEvict         5301027                       # Transaction distribution
system.tol2bus.trans_dist::HardPFReq          3048096                       # Transaction distribution
system.tol2bus.trans_dist::HardPFResp               2                       # Transaction distribution
system.tol2bus.trans_dist::UpgradeReq           50623                       # Transaction distribution
system.tol2bus.trans_dist::SCUpgradeReq          9262                       # Transaction distribution
system.tol2bus.trans_dist::UpgradeResp          59885                       # Transaction distribution
system.tol2bus.trans_dist::SCUpgradeFailReq           72                       # Transaction distribution
system.tol2bus.trans_dist::UpgradeFailResp           72                       # Transaction distribution
system.tol2bus.trans_dist::ReadExReq           168239                       # Transaction distribution
system.tol2bus.trans_dist::ReadExResp          168239                       # Transaction distribution
system.tol2bus.trans_dist::ReadCleanReq        119101                       # Transaction distribution
system.tol2bus.trans_dist::ReadSharedReq      2933637                       # Transaction distribution
system.tol2bus.trans_dist::InvalidateReq         1290                       # Transaction distribution
system.tol2bus.trans_dist::InvalidateResp         1290                       # Transaction distribution
system.tol2bus.pkt_count_system.cpu0.icache.mem_side::system.l2.cpu_side       297701                       # Packet count per connected master and slave (bytes)
system.tol2bus.pkt_count_system.cpu0.dcache.mem_side::system.l2.cpu_side      4843266                       # Packet count per connected master and slave (bytes)
system.tol2bus.pkt_count_system.cpu1.icache.mem_side::system.l2.cpu_side        59586                       # Packet count per connected master and slave (bytes)
system.tol2bus.pkt_count_system.cpu1.dcache.mem_side::system.l2.cpu_side      4377310                       # Packet count per connected master and slave (bytes)
system.tol2bus.pkt_count::total               9577863                       # Packet count per connected master and slave (bytes)
system.tol2bus.pkt_size_system.cpu0.icache.mem_side::system.l2.cpu_side     12701568                       # Cumulative packet size per connected master and slave (bytes)
system.tol2bus.pkt_size_system.cpu0.dcache.mem_side::system.l2.cpu_side    203322624                       # Cumulative packet size per connected master and slave (bytes)
system.tol2bus.pkt_size_system.cpu1.icache.mem_side::system.l2.cpu_side      2542336                       # Cumulative packet size per connected master and slave (bytes)
system.tol2bus.pkt_size_system.cpu1.dcache.mem_side::system.l2.cpu_side    183539264                       # Cumulative packet size per connected master and slave (bytes)
system.tol2bus.pkt_size::total              402105792                       # Cumulative packet size per connected master and slave (bytes)
system.tol2bus.snoops                         8827412                       # Total snoops (count)
system.tol2bus.snoopTraffic                  27510400                       # Total snoop traffic (bytes)
system.tol2bus.snoop_fanout::samples         11980835                       # Request fanout histogram
system.tol2bus.snoop_fanout::mean            0.233393                       # Request fanout histogram
system.tol2bus.snoop_fanout::stdev           0.450399                       # Request fanout histogram
system.tol2bus.snoop_fanout::underflows             0      0.00%      0.00% # Request fanout histogram
system.tol2bus.snoop_fanout::0                9327742     77.86%     77.86% # Request fanout histogram
system.tol2bus.snoop_fanout::1                2510191     20.95%     98.81% # Request fanout histogram
system.tol2bus.snoop_fanout::2                 142653      1.19%    100.00% # Request fanout histogram
system.tol2bus.snoop_fanout::3                    249      0.00%    100.00% # Request fanout histogram
system.tol2bus.snoop_fanout::4                      0      0.00%    100.00% # Request fanout histogram
system.tol2bus.snoop_fanout::5                      0      0.00%    100.00% # Request fanout histogram
system.tol2bus.snoop_fanout::6                      0      0.00%    100.00% # Request fanout histogram
system.tol2bus.snoop_fanout::7                      0      0.00%    100.00% # Request fanout histogram
system.tol2bus.snoop_fanout::8                      0      0.00%    100.00% # Request fanout histogram
system.tol2bus.snoop_fanout::overflows              0      0.00%    100.00% # Request fanout histogram
system.tol2bus.snoop_fanout::min_value              0                       # Request fanout histogram
system.tol2bus.snoop_fanout::max_value              3                       # Request fanout histogram
system.tol2bus.snoop_fanout::total           11980835                       # Request fanout histogram
system.tol2bus.reqLayer0.occupancy         6357603213                       # Layer occupancy (ticks)
system.tol2bus.reqLayer0.utilization              8.5                       # Layer utilization (%)
system.tol2bus.respLayer1.occupancy        2463057925                       # Layer occupancy (ticks)
system.tol2bus.respLayer1.utilization             3.3                       # Layer utilization (%)
system.tol2bus.respLayer0.occupancy         148956806                       # Layer occupancy (ticks)
system.tol2bus.respLayer0.utilization             0.2                       # Layer utilization (%)
system.tol2bus.respLayer3.occupancy        2231284394                       # Layer occupancy (ticks)
system.tol2bus.respLayer3.utilization             3.0                       # Layer utilization (%)
system.tol2bus.respLayer2.occupancy          29954676                       # Layer occupancy (ticks)
system.tol2bus.respLayer2.utilization             0.0                       # Layer utilization (%)
system.tol2bus.snoopLayer0.occupancy             3001                       # Layer occupancy (ticks)
system.tol2bus.snoopLayer0.utilization            0.0                       # Layer utilization (%)

---------- End Simulation Statistics   ----------
