
---------- Begin Simulation Statistics ----------
final_tick                               1259967333000                       # Number of ticks from beginning of simulation (restored from checkpoints and never reset)
host_inst_rate                                  65210                       # Simulator instruction rate (inst/s)
host_mem_usage                                 702036                       # Number of bytes of host memory used
host_op_rate                                    65400                       # Simulator op (including micro ops) rate (op/s)
host_seconds                                 22030.88                       # Real time elapsed on the host
host_tick_rate                               57190974                       # Simulator tick rate (ticks/s)
sim_freq                                 1000000000000                       # Frequency of simulated ticks
sim_insts                                  1436625001                       # Number of instructions simulated
sim_ops                                    1440828773                       # Number of ops (including micro ops) simulated
sim_seconds                                  1.259967                       # Number of seconds simulated
sim_ticks                                1259967333000                       # Number of ticks simulated
system.cpu0.branchPred.BTBCorrect                   0                       # Number of correct BTB predictions (this stat may not work properly.
system.cpu0.branchPred.BTBHitPct            87.340891                       # BTB Hit Percentage
system.cpu0.branchPred.BTBHits              176962384                       # Number of BTB hits
system.cpu0.branchPred.BTBLookups           202611150                       # Number of BTB lookups
system.cpu0.branchPred.RASInCorrect                 0                       # Number of incorrect RAS predictions.
system.cpu0.branchPred.condIncorrect         13402473                       # Number of conditional branches incorrect
system.cpu0.branchPred.condPredicted        272435139                       # Number of conditional branches predicted
system.cpu0.branchPred.indirectHits          21609517                       # Number of indirect target hits.
system.cpu0.branchPred.indirectLookups       23080665                       # Number of indirect predictor lookups.
system.cpu0.branchPred.indirectMisses         1471148                       # Number of indirect misses.
system.cpu0.branchPred.lookups              345010470                       # Number of BP lookups
system.cpu0.branchPred.usedRAS                      0                       # Number of times the RAS was used to get a target.
system.cpu0.branchPredindirectMispredicted      2187848                       # Number of mispredicted indirect branches.
system.cpu0.commit.amos                       2100298                       # Number of atomic instructions committed
system.cpu0.commit.branchMispredicts          8744208                       # The number of times a branch was mispredicted
system.cpu0.commit.branches                 329546557                       # Number of branches committed
system.cpu0.commit.bw_lim_events             34924270                       # number cycles where commit BW limit reached
system.cpu0.commit.commitNonSpecStalls        6309803                       # The number of times commit has been forced to stall to communicate backwards
system.cpu0.commit.commitSquashedInsts       63400289                       # The number of squashed insts skipped by commit
system.cpu0.commit.committedInsts          1316554081                       # Number of instructions committed
system.cpu0.commit.committedOps            1318657670                       # Number of ops (including micro ops) committed
system.cpu0.commit.committed_per_cycle::samples   2340828223                       # Number of insts commited each cycle
system.cpu0.commit.committed_per_cycle::mean     0.563330                       # Number of insts commited each cycle
system.cpu0.commit.committed_per_cycle::stdev     1.306457                       # Number of insts commited each cycle
system.cpu0.commit.committed_per_cycle::underflows            0      0.00%      0.00% # Number of insts commited each cycle
system.cpu0.commit.committed_per_cycle::0   1682557716     71.88%     71.88% # Number of insts commited each cycle
system.cpu0.commit.committed_per_cycle::1    407838075     17.42%     89.30% # Number of insts commited each cycle
system.cpu0.commit.committed_per_cycle::2     85563407      3.66%     92.96% # Number of insts commited each cycle
system.cpu0.commit.committed_per_cycle::3     88295657      3.77%     96.73% # Number of insts commited each cycle
system.cpu0.commit.committed_per_cycle::4     24943769      1.07%     97.79% # Number of insts commited each cycle
system.cpu0.commit.committed_per_cycle::5      8788578      0.38%     98.17% # Number of insts commited each cycle
system.cpu0.commit.committed_per_cycle::6      3723573      0.16%     98.33% # Number of insts commited each cycle
system.cpu0.commit.committed_per_cycle::7      4193178      0.18%     98.51% # Number of insts commited each cycle
system.cpu0.commit.committed_per_cycle::8     34924270      1.49%    100.00% # Number of insts commited each cycle
system.cpu0.commit.committed_per_cycle::overflows            0      0.00%    100.00% # Number of insts commited each cycle
system.cpu0.commit.committed_per_cycle::min_value            0                       # Number of insts commited each cycle
system.cpu0.commit.committed_per_cycle::max_value            8                       # Number of insts commited each cycle
system.cpu0.commit.committed_per_cycle::total   2340828223                       # Number of insts commited each cycle
system.cpu0.commit.fp_insts                        46                       # Number of committed floating point instructions.
system.cpu0.commit.function_calls            25143539                       # Number of function calls committed.
system.cpu0.commit.int_insts               1273925724                       # Number of committed integer instructions.
system.cpu0.commit.loads                    405171749                       # Number of loads committed
system.cpu0.commit.membars                    4203747                       # Number of memory barriers committed
system.cpu0.commit.op_class_0::No_OpClass      4203753      0.32%      0.32% # Class of committed instruction
system.cpu0.commit.op_class_0::IntAlu       742065589     56.27%     56.59% # Class of committed instruction
system.cpu0.commit.op_class_0::IntMult       11831786      0.90%     57.49% # Class of committed instruction
system.cpu0.commit.op_class_0::IntDiv         2099835      0.16%     57.65% # Class of committed instruction
system.cpu0.commit.op_class_0::FloatAdd             0      0.00%     57.65% # Class of committed instruction
system.cpu0.commit.op_class_0::FloatCmp             4      0.00%     57.65% # Class of committed instruction
system.cpu0.commit.op_class_0::FloatCvt            12      0.00%     57.65% # Class of committed instruction
system.cpu0.commit.op_class_0::FloatMult            0      0.00%     57.65% # Class of committed instruction
system.cpu0.commit.op_class_0::FloatMultAcc            0      0.00%     57.65% # Class of committed instruction
system.cpu0.commit.op_class_0::FloatDiv             2      0.00%     57.65% # Class of committed instruction
system.cpu0.commit.op_class_0::FloatMisc            4      0.00%     57.65% # Class of committed instruction
system.cpu0.commit.op_class_0::FloatSqrt            0      0.00%     57.65% # Class of committed instruction
system.cpu0.commit.op_class_0::SimdAdd              0      0.00%     57.65% # Class of committed instruction
system.cpu0.commit.op_class_0::SimdAddAcc            0      0.00%     57.65% # Class of committed instruction
system.cpu0.commit.op_class_0::SimdAlu              0      0.00%     57.65% # Class of committed instruction
system.cpu0.commit.op_class_0::SimdCmp              0      0.00%     57.65% # Class of committed instruction
system.cpu0.commit.op_class_0::SimdCvt              0      0.00%     57.65% # Class of committed instruction
system.cpu0.commit.op_class_0::SimdMisc             0      0.00%     57.65% # Class of committed instruction
system.cpu0.commit.op_class_0::SimdMult             0      0.00%     57.65% # Class of committed instruction
system.cpu0.commit.op_class_0::SimdMultAcc            0      0.00%     57.65% # Class of committed instruction
system.cpu0.commit.op_class_0::SimdShift            0      0.00%     57.65% # Class of committed instruction
system.cpu0.commit.op_class_0::SimdShiftAcc            0      0.00%     57.65% # Class of committed instruction
system.cpu0.commit.op_class_0::SimdDiv              0      0.00%     57.65% # Class of committed instruction
system.cpu0.commit.op_class_0::SimdSqrt             0      0.00%     57.65% # Class of committed instruction
system.cpu0.commit.op_class_0::SimdFloatAdd            0      0.00%     57.65% # Class of committed instruction
system.cpu0.commit.op_class_0::SimdFloatAlu            0      0.00%     57.65% # Class of committed instruction
system.cpu0.commit.op_class_0::SimdFloatCmp            0      0.00%     57.65% # Class of committed instruction
system.cpu0.commit.op_class_0::SimdFloatCvt            0      0.00%     57.65% # Class of committed instruction
system.cpu0.commit.op_class_0::SimdFloatDiv            0      0.00%     57.65% # Class of committed instruction
system.cpu0.commit.op_class_0::SimdFloatMisc            0      0.00%     57.65% # Class of committed instruction
system.cpu0.commit.op_class_0::SimdFloatMult            0      0.00%     57.65% # Class of committed instruction
system.cpu0.commit.op_class_0::SimdFloatMultAcc            0      0.00%     57.65% # Class of committed instruction
system.cpu0.commit.op_class_0::SimdFloatSqrt            0      0.00%     57.65% # Class of committed instruction
system.cpu0.commit.op_class_0::SimdReduceAdd            0      0.00%     57.65% # Class of committed instruction
system.cpu0.commit.op_class_0::SimdReduceAlu            0      0.00%     57.65% # Class of committed instruction
system.cpu0.commit.op_class_0::SimdReduceCmp            0      0.00%     57.65% # Class of committed instruction
system.cpu0.commit.op_class_0::SimdFloatReduceAdd            0      0.00%     57.65% # Class of committed instruction
system.cpu0.commit.op_class_0::SimdFloatReduceCmp            0      0.00%     57.65% # Class of committed instruction
system.cpu0.commit.op_class_0::SimdAes              0      0.00%     57.65% # Class of committed instruction
system.cpu0.commit.op_class_0::SimdAesMix            0      0.00%     57.65% # Class of committed instruction
system.cpu0.commit.op_class_0::SimdSha1Hash            0      0.00%     57.65% # Class of committed instruction
system.cpu0.commit.op_class_0::SimdSha1Hash2            0      0.00%     57.65% # Class of committed instruction
system.cpu0.commit.op_class_0::SimdSha256Hash            0      0.00%     57.65% # Class of committed instruction
system.cpu0.commit.op_class_0::SimdSha256Hash2            0      0.00%     57.65% # Class of committed instruction
system.cpu0.commit.op_class_0::SimdShaSigma2            0      0.00%     57.65% # Class of committed instruction
system.cpu0.commit.op_class_0::SimdShaSigma3            0      0.00%     57.65% # Class of committed instruction
system.cpu0.commit.op_class_0::SimdPredAlu            0      0.00%     57.65% # Class of committed instruction
system.cpu0.commit.op_class_0::MemRead      407272039     30.89%     88.53% # Class of committed instruction
system.cpu0.commit.op_class_0::MemWrite     151184622     11.47%    100.00% # Class of committed instruction
system.cpu0.commit.op_class_0::FloatMemRead            8      0.00%    100.00% # Class of committed instruction
system.cpu0.commit.op_class_0::FloatMemWrite           16      0.00%    100.00% # Class of committed instruction
system.cpu0.commit.op_class_0::IprAccess            0      0.00%    100.00% # Class of committed instruction
system.cpu0.commit.op_class_0::InstPrefetch            0      0.00%    100.00% # Class of committed instruction
system.cpu0.commit.op_class_0::total       1318657670                       # Class of committed instruction
system.cpu0.commit.refs                     558456685                       # Number of memory references committed
system.cpu0.commit.swp_count                        0                       # Number of s/w prefetches committed
system.cpu0.commit.vec_insts                        0                       # Number of committed Vector instructions.
system.cpu0.committedInsts                 1316554081                       # Number of Instructions Simulated
system.cpu0.committedOps                   1318657670                       # Number of Ops (including micro ops) Simulated
system.cpu0.cpi                              1.909910                       # CPI: Cycles Per Instruction
system.cpu0.cpi_total                        1.909910                       # CPI: Total CPI of All Threads
system.cpu0.decode.BlockedCycles            419890379                       # Number of cycles decode is blocked
system.cpu0.decode.BranchMispred              4710077                       # Number of times decode detected a branch misprediction
system.cpu0.decode.BranchResolved           176174377                       # Number of times decode resolved a branch
system.cpu0.decode.DecodedInsts            1403685851                       # Number of instructions handled by decode
system.cpu0.decode.IdleCycles               944353363                       # Number of cycles decode is idle
system.cpu0.decode.RunCycles                975406904                       # Number of cycles decode is running
system.cpu0.decode.SquashCycles               8755952                       # Number of cycles decode is squashing
system.cpu0.decode.SquashedInsts              8110288                       # Number of squashed instructions handled by decode
system.cpu0.decode.UnblockCycles              5886066                       # Number of cycles decode is unblocking
system.cpu0.dtb.accesses                            0                       # DTB accesses
system.cpu0.dtb.hits                                0                       # DTB hits
system.cpu0.dtb.misses                              0                       # DTB misses
system.cpu0.dtb.read_accesses                       0                       # DTB read accesses
system.cpu0.dtb.read_hits                           0                       # DTB read hits
system.cpu0.dtb.read_misses                         0                       # DTB read misses
system.cpu0.dtb.write_accesses                      0                       # DTB write accesses
system.cpu0.dtb.write_hits                          0                       # DTB write hits
system.cpu0.dtb.write_misses                        0                       # DTB write misses
system.cpu0.fetch.Branches                  345010470                       # Number of branches that fetch encountered
system.cpu0.fetch.CacheLines                248207148                       # Number of cache lines fetched
system.cpu0.fetch.Cycles                   1405043083                       # Number of cycles fetch has run and was not squashing or blocked
system.cpu0.fetch.IcacheSquashes              5010574                       # Number of outstanding Icache misses that were squashed
system.cpu0.fetch.IcacheWaitRetryStallCycles          168                       # Number of stall cycles due to full MSHR
system.cpu0.fetch.Insts                    1420247354                       # Number of instructions fetch has processed
system.cpu0.fetch.MiscStallCycles                  26                       # Number of cycles fetch has spent waiting on interrupts, or bad addresses, or out of MSHRs
system.cpu0.fetch.PendingTrapStallCycles            9                       # Number of stall cycles due to pending traps
system.cpu0.fetch.SquashCycles               26828436                       # Number of cycles fetch has spent squashing
system.cpu0.fetch.branchRate                 0.137208                       # Number of branch fetches per cycle
system.cpu0.fetch.icacheStallCycles         935835160                       # Number of cycles fetch is stalled on an Icache miss
system.cpu0.fetch.predictedBranches         198571901                       # Number of branches that fetch has predicted taken
system.cpu0.fetch.rate                       0.564823                       # Number of inst fetches per cycle
system.cpu0.fetch.rateDist::samples        2354292664                       # Number of instructions fetched each cycle (Total)
system.cpu0.fetch.rateDist::mean             0.604152                       # Number of instructions fetched each cycle (Total)
system.cpu0.fetch.rateDist::stdev            0.876849                       # Number of instructions fetched each cycle (Total)
system.cpu0.fetch.rateDist::underflows              0      0.00%      0.00% # Number of instructions fetched each cycle (Total)
system.cpu0.fetch.rateDist::0              1337683423     56.82%     56.82% # Number of instructions fetched each cycle (Total)
system.cpu0.fetch.rateDist::1               753676315     32.01%     88.83% # Number of instructions fetched each cycle (Total)
system.cpu0.fetch.rateDist::2               156450473      6.65%     95.48% # Number of instructions fetched each cycle (Total)
system.cpu0.fetch.rateDist::3                89792855      3.81%     99.29% # Number of instructions fetched each cycle (Total)
system.cpu0.fetch.rateDist::4                 7671186      0.33%     99.62% # Number of instructions fetched each cycle (Total)
system.cpu0.fetch.rateDist::5                 4709076      0.20%     99.82% # Number of instructions fetched each cycle (Total)
system.cpu0.fetch.rateDist::6                  103684      0.00%     99.82% # Number of instructions fetched each cycle (Total)
system.cpu0.fetch.rateDist::7                 2101590      0.09%     99.91% # Number of instructions fetched each cycle (Total)
system.cpu0.fetch.rateDist::8                 2104062      0.09%    100.00% # Number of instructions fetched each cycle (Total)
system.cpu0.fetch.rateDist::overflows               0      0.00%    100.00% # Number of instructions fetched each cycle (Total)
system.cpu0.fetch.rateDist::min_value               0                       # Number of instructions fetched each cycle (Total)
system.cpu0.fetch.rateDist::max_value               8                       # Number of instructions fetched each cycle (Total)
system.cpu0.fetch.rateDist::total          2354292664                       # Number of instructions fetched each cycle (Total)
system.cpu0.fp_regfile_reads                       40                       # number of floating regfile reads
system.cpu0.fp_regfile_writes                      23                       # number of floating regfile writes
system.cpu0.idleCycles                      160207108                       # Total number of cycles that the CPU has spent unscheduled due to idling
system.cpu0.iew.branchMispredicts             8860704                       # Number of branch mispredicts detected at execute
system.cpu0.iew.exec_branches               335885185                       # Number of branches executed
system.cpu0.iew.exec_nop                            0                       # number of nop insts executed
system.cpu0.iew.exec_rate                    0.544203                       # Inst execution rate
system.cpu0.iew.exec_refs                   586164830                       # number of memory reference insts executed
system.cpu0.iew.exec_stores                 155844362                       # Number of stores executed
system.cpu0.iew.exec_swp                            0                       # number of swp insts executed
system.cpu0.iew.iewBlockCycles              349604246                       # Number of cycles IEW is blocking
system.cpu0.iew.iewDispLoadInsts            430580441                       # Number of dispatched load instructions
system.cpu0.iew.iewDispNonSpecInsts           2106229                       # Number of dispatched non-speculative instructions
system.cpu0.iew.iewDispSquashedInsts          3214331                       # Number of squashed instructions skipped by dispatch
system.cpu0.iew.iewDispStoreInsts           157940693                       # Number of dispatched store instructions
system.cpu0.iew.iewDispatchedInsts         1381996154                       # Number of instructions dispatched to IQ
system.cpu0.iew.iewExecLoadInsts            430320468                       # Number of load instructions executed
system.cpu0.iew.iewExecSquashedInsts          9001910                       # Number of squashed instructions skipped in execute
system.cpu0.iew.iewExecutedInsts           1368397063                       # Number of executed instructions
system.cpu0.iew.iewIQFullEvents               1683001                       # Number of times the IQ has become full, causing a stall
system.cpu0.iew.iewIdleCycles                       0                       # Number of cycles IEW is idle
system.cpu0.iew.iewLSQFullEvents              7100224                       # Number of times the LSQ has become full, causing a stall
system.cpu0.iew.iewSquashCycles               8755952                       # Number of cycles IEW is squashing
system.cpu0.iew.iewUnblockCycles             11154137                       # Number of cycles IEW is unblocking
system.cpu0.iew.lsq.thread0.blockedLoads            0                       # Number of blocked loads due to partial load-store forwarding
system.cpu0.iew.lsq.thread0.cacheBlocked       148078                       # Number of times an access to memory failed due to the cache being blocked
system.cpu0.iew.lsq.thread0.forwLoads        19916178                       # Number of loads that had data forwarded from stores
system.cpu0.iew.lsq.thread0.ignoredResponses        32576                       # Number of memory responses ignored because the instruction is squashed
system.cpu0.iew.lsq.thread0.invAddrLoads            0                       # Number of loads ignored due to an invalid address
system.cpu0.iew.lsq.thread0.invAddrSwpfs            0                       # Number of software prefetches ignored due to an invalid address
system.cpu0.iew.lsq.thread0.memOrderViolation        11866                       # Number of memory ordering violations
system.cpu0.iew.lsq.thread0.rescheduledLoads      4788611                       # Number of loads that were rescheduled
system.cpu0.iew.lsq.thread0.squashedLoads     25408692                       # Number of loads squashed
system.cpu0.iew.lsq.thread0.squashedStores      4655757                       # Number of stores squashed
system.cpu0.iew.memOrderViolationEvents         11866                       # Number of memory order violations
system.cpu0.iew.predictedNotTakenIncorrect       726540                       # Number of branches that were predicted not taken incorrectly
system.cpu0.iew.predictedTakenIncorrect       8134164                       # Number of branches that were predicted taken incorrectly
system.cpu0.iew.wb_consumers                575683939                       # num instructions consuming a value
system.cpu0.iew.wb_count                   1357213745                       # cumulative count of insts written-back
system.cpu0.iew.wb_fanout                    0.900401                       # average fanout of values written-back
system.cpu0.iew.wb_producers                518346128                       # num instructions producing a value
system.cpu0.iew.wb_rate                      0.539755                       # insts written-back per cycle
system.cpu0.iew.wb_sent                    1357284049                       # cumulative count of insts sent to commit
system.cpu0.int_regfile_reads              1679060163                       # number of integer regfile reads
system.cpu0.int_regfile_writes              875174499                       # number of integer regfile writes
system.cpu0.ipc                              0.523585                       # IPC: Instructions Per Cycle
system.cpu0.ipc_total                        0.523585                       # IPC: Total IPC of All Threads
system.cpu0.iq.FU_type_0::No_OpClass          4205630      0.31%      0.31% # Type of FU issued
system.cpu0.iq.FU_type_0::IntAlu            768897716     55.82%     56.13% # Type of FU issued
system.cpu0.iq.FU_type_0::IntMult            11833037      0.86%     56.99% # Type of FU issued
system.cpu0.iq.FU_type_0::IntDiv              2100432      0.15%     57.14% # Type of FU issued
system.cpu0.iq.FU_type_0::FloatAdd                  0      0.00%     57.14% # Type of FU issued
system.cpu0.iq.FU_type_0::FloatCmp                  4      0.00%     57.14% # Type of FU issued
system.cpu0.iq.FU_type_0::FloatCvt                 12      0.00%     57.14% # Type of FU issued
system.cpu0.iq.FU_type_0::FloatMult                 0      0.00%     57.14% # Type of FU issued
system.cpu0.iq.FU_type_0::FloatMultAcc              0      0.00%     57.14% # Type of FU issued
system.cpu0.iq.FU_type_0::FloatDiv                  2      0.00%     57.14% # Type of FU issued
system.cpu0.iq.FU_type_0::FloatMisc                 4      0.00%     57.14% # Type of FU issued
system.cpu0.iq.FU_type_0::FloatSqrt                 0      0.00%     57.14% # Type of FU issued
system.cpu0.iq.FU_type_0::SimdAdd                   0      0.00%     57.14% # Type of FU issued
system.cpu0.iq.FU_type_0::SimdAddAcc                0      0.00%     57.14% # Type of FU issued
system.cpu0.iq.FU_type_0::SimdAlu                   0      0.00%     57.14% # Type of FU issued
system.cpu0.iq.FU_type_0::SimdCmp                   0      0.00%     57.14% # Type of FU issued
system.cpu0.iq.FU_type_0::SimdCvt                   0      0.00%     57.14% # Type of FU issued
system.cpu0.iq.FU_type_0::SimdMisc                  0      0.00%     57.14% # Type of FU issued
system.cpu0.iq.FU_type_0::SimdMult                  0      0.00%     57.14% # Type of FU issued
system.cpu0.iq.FU_type_0::SimdMultAcc               0      0.00%     57.14% # Type of FU issued
system.cpu0.iq.FU_type_0::SimdShift                 0      0.00%     57.14% # Type of FU issued
system.cpu0.iq.FU_type_0::SimdShiftAcc              0      0.00%     57.14% # Type of FU issued
system.cpu0.iq.FU_type_0::SimdDiv                   0      0.00%     57.14% # Type of FU issued
system.cpu0.iq.FU_type_0::SimdSqrt                  0      0.00%     57.14% # Type of FU issued
system.cpu0.iq.FU_type_0::SimdFloatAdd              0      0.00%     57.14% # Type of FU issued
system.cpu0.iq.FU_type_0::SimdFloatAlu              0      0.00%     57.14% # Type of FU issued
system.cpu0.iq.FU_type_0::SimdFloatCmp              0      0.00%     57.14% # Type of FU issued
system.cpu0.iq.FU_type_0::SimdFloatCvt              0      0.00%     57.14% # Type of FU issued
system.cpu0.iq.FU_type_0::SimdFloatDiv              0      0.00%     57.14% # Type of FU issued
system.cpu0.iq.FU_type_0::SimdFloatMisc             0      0.00%     57.14% # Type of FU issued
system.cpu0.iq.FU_type_0::SimdFloatMult             0      0.00%     57.14% # Type of FU issued
system.cpu0.iq.FU_type_0::SimdFloatMultAcc            0      0.00%     57.14% # Type of FU issued
system.cpu0.iq.FU_type_0::SimdFloatSqrt             0      0.00%     57.14% # Type of FU issued
system.cpu0.iq.FU_type_0::SimdReduceAdd             0      0.00%     57.14% # Type of FU issued
system.cpu0.iq.FU_type_0::SimdReduceAlu             0      0.00%     57.14% # Type of FU issued
system.cpu0.iq.FU_type_0::SimdReduceCmp             0      0.00%     57.14% # Type of FU issued
system.cpu0.iq.FU_type_0::SimdFloatReduceAdd            0      0.00%     57.14% # Type of FU issued
system.cpu0.iq.FU_type_0::SimdFloatReduceCmp            0      0.00%     57.14% # Type of FU issued
system.cpu0.iq.FU_type_0::SimdAes                   0      0.00%     57.14% # Type of FU issued
system.cpu0.iq.FU_type_0::SimdAesMix                0      0.00%     57.14% # Type of FU issued
system.cpu0.iq.FU_type_0::SimdSha1Hash              0      0.00%     57.14% # Type of FU issued
system.cpu0.iq.FU_type_0::SimdSha1Hash2             0      0.00%     57.14% # Type of FU issued
system.cpu0.iq.FU_type_0::SimdSha256Hash            0      0.00%     57.14% # Type of FU issued
system.cpu0.iq.FU_type_0::SimdSha256Hash2            0      0.00%     57.14% # Type of FU issued
system.cpu0.iq.FU_type_0::SimdShaSigma2             0      0.00%     57.14% # Type of FU issued
system.cpu0.iq.FU_type_0::SimdShaSigma3             0      0.00%     57.14% # Type of FU issued
system.cpu0.iq.FU_type_0::SimdPredAlu               0      0.00%     57.14% # Type of FU issued
system.cpu0.iq.FU_type_0::MemRead           434934005     31.58%     88.72% # Type of FU issued
system.cpu0.iq.FU_type_0::MemWrite          155428107     11.28%    100.00% # Type of FU issued
system.cpu0.iq.FU_type_0::FloatMemRead              9      0.00%    100.00% # Type of FU issued
system.cpu0.iq.FU_type_0::FloatMemWrite            16      0.00%    100.00% # Type of FU issued
system.cpu0.iq.FU_type_0::IprAccess                 0      0.00%    100.00% # Type of FU issued
system.cpu0.iq.FU_type_0::InstPrefetch              0      0.00%    100.00% # Type of FU issued
system.cpu0.iq.FU_type_0::total            1377398974                       # Type of FU issued
system.cpu0.iq.fp_alu_accesses                     49                       # Number of floating point alu accesses
system.cpu0.iq.fp_inst_queue_reads                 96                       # Number of floating instruction queue reads
system.cpu0.iq.fp_inst_queue_wakeup_accesses           47                       # Number of floating instruction queue wakeup accesses
system.cpu0.iq.fp_inst_queue_writes                48                       # Number of floating instruction queue writes
system.cpu0.iq.fu_busy_cnt                    2818145                       # FU busy when requested
system.cpu0.iq.fu_busy_rate                  0.002046                       # FU busy rate (busy events/executed inst)
system.cpu0.iq.fu_full::No_OpClass                  0      0.00%      0.00% # attempts to use FU when none available
system.cpu0.iq.fu_full::IntAlu                 520303     18.46%     18.46% # attempts to use FU when none available
system.cpu0.iq.fu_full::IntMult                     0      0.00%     18.46% # attempts to use FU when none available
system.cpu0.iq.fu_full::IntDiv                      0      0.00%     18.46% # attempts to use FU when none available
system.cpu0.iq.fu_full::FloatAdd                    0      0.00%     18.46% # attempts to use FU when none available
system.cpu0.iq.fu_full::FloatCmp                    0      0.00%     18.46% # attempts to use FU when none available
system.cpu0.iq.fu_full::FloatCvt                    0      0.00%     18.46% # attempts to use FU when none available
system.cpu0.iq.fu_full::FloatMult                   0      0.00%     18.46% # attempts to use FU when none available
system.cpu0.iq.fu_full::FloatMultAcc                0      0.00%     18.46% # attempts to use FU when none available
system.cpu0.iq.fu_full::FloatDiv                    0      0.00%     18.46% # attempts to use FU when none available
system.cpu0.iq.fu_full::FloatMisc                   0      0.00%     18.46% # attempts to use FU when none available
system.cpu0.iq.fu_full::FloatSqrt                   0      0.00%     18.46% # attempts to use FU when none available
system.cpu0.iq.fu_full::SimdAdd                     0      0.00%     18.46% # attempts to use FU when none available
system.cpu0.iq.fu_full::SimdAddAcc                  0      0.00%     18.46% # attempts to use FU when none available
system.cpu0.iq.fu_full::SimdAlu                     0      0.00%     18.46% # attempts to use FU when none available
system.cpu0.iq.fu_full::SimdCmp                     0      0.00%     18.46% # attempts to use FU when none available
system.cpu0.iq.fu_full::SimdCvt                     0      0.00%     18.46% # attempts to use FU when none available
system.cpu0.iq.fu_full::SimdMisc                    0      0.00%     18.46% # attempts to use FU when none available
system.cpu0.iq.fu_full::SimdMult                    0      0.00%     18.46% # attempts to use FU when none available
system.cpu0.iq.fu_full::SimdMultAcc                 0      0.00%     18.46% # attempts to use FU when none available
system.cpu0.iq.fu_full::SimdShift                   0      0.00%     18.46% # attempts to use FU when none available
system.cpu0.iq.fu_full::SimdShiftAcc                0      0.00%     18.46% # attempts to use FU when none available
system.cpu0.iq.fu_full::SimdDiv                     0      0.00%     18.46% # attempts to use FU when none available
system.cpu0.iq.fu_full::SimdSqrt                    0      0.00%     18.46% # attempts to use FU when none available
system.cpu0.iq.fu_full::SimdFloatAdd                0      0.00%     18.46% # attempts to use FU when none available
system.cpu0.iq.fu_full::SimdFloatAlu                0      0.00%     18.46% # attempts to use FU when none available
system.cpu0.iq.fu_full::SimdFloatCmp                0      0.00%     18.46% # attempts to use FU when none available
system.cpu0.iq.fu_full::SimdFloatCvt                0      0.00%     18.46% # attempts to use FU when none available
system.cpu0.iq.fu_full::SimdFloatDiv                0      0.00%     18.46% # attempts to use FU when none available
system.cpu0.iq.fu_full::SimdFloatMisc               0      0.00%     18.46% # attempts to use FU when none available
system.cpu0.iq.fu_full::SimdFloatMult               0      0.00%     18.46% # attempts to use FU when none available
system.cpu0.iq.fu_full::SimdFloatMultAcc            0      0.00%     18.46% # attempts to use FU when none available
system.cpu0.iq.fu_full::SimdFloatSqrt               0      0.00%     18.46% # attempts to use FU when none available
system.cpu0.iq.fu_full::SimdReduceAdd               0      0.00%     18.46% # attempts to use FU when none available
system.cpu0.iq.fu_full::SimdReduceAlu               0      0.00%     18.46% # attempts to use FU when none available
system.cpu0.iq.fu_full::SimdReduceCmp               0      0.00%     18.46% # attempts to use FU when none available
system.cpu0.iq.fu_full::SimdFloatReduceAdd            0      0.00%     18.46% # attempts to use FU when none available
system.cpu0.iq.fu_full::SimdFloatReduceCmp            0      0.00%     18.46% # attempts to use FU when none available
system.cpu0.iq.fu_full::SimdAes                     0      0.00%     18.46% # attempts to use FU when none available
system.cpu0.iq.fu_full::SimdAesMix                  0      0.00%     18.46% # attempts to use FU when none available
system.cpu0.iq.fu_full::SimdSha1Hash                0      0.00%     18.46% # attempts to use FU when none available
system.cpu0.iq.fu_full::SimdSha1Hash2               0      0.00%     18.46% # attempts to use FU when none available
system.cpu0.iq.fu_full::SimdSha256Hash              0      0.00%     18.46% # attempts to use FU when none available
system.cpu0.iq.fu_full::SimdSha256Hash2             0      0.00%     18.46% # attempts to use FU when none available
system.cpu0.iq.fu_full::SimdShaSigma2               0      0.00%     18.46% # attempts to use FU when none available
system.cpu0.iq.fu_full::SimdShaSigma3               0      0.00%     18.46% # attempts to use FU when none available
system.cpu0.iq.fu_full::SimdPredAlu                 0      0.00%     18.46% # attempts to use FU when none available
system.cpu0.iq.fu_full::MemRead               1921643     68.19%     86.65% # attempts to use FU when none available
system.cpu0.iq.fu_full::MemWrite               376197     13.35%    100.00% # attempts to use FU when none available
system.cpu0.iq.fu_full::FloatMemRead                0      0.00%    100.00% # attempts to use FU when none available
system.cpu0.iq.fu_full::FloatMemWrite               2      0.00%    100.00% # attempts to use FU when none available
system.cpu0.iq.fu_full::IprAccess                   0      0.00%    100.00% # attempts to use FU when none available
system.cpu0.iq.fu_full::InstPrefetch                0      0.00%    100.00% # attempts to use FU when none available
system.cpu0.iq.int_alu_accesses            1376011440                       # Number of integer alu accesses
system.cpu0.iq.int_inst_queue_reads        5112062728                       # Number of integer instruction queue reads
system.cpu0.iq.int_inst_queue_wakeup_accesses   1357213698                       # Number of integer instruction queue wakeup accesses
system.cpu0.iq.int_inst_queue_writes       1445346024                       # Number of integer instruction queue writes
system.cpu0.iq.iqInstsAdded                1375686024                       # Number of instructions added to the IQ (excludes non-spec)
system.cpu0.iq.iqInstsIssued               1377398974                       # Number of instructions issued
system.cpu0.iq.iqNonSpecInstsAdded            6310130                       # Number of non-speculative instructions added to the IQ
system.cpu0.iq.iqSquashedInstsExamined       63338480                       # Number of squashed instructions iterated over during squash; mainly for profiling
system.cpu0.iq.iqSquashedInstsIssued           154068                       # Number of squashed instructions issued
system.cpu0.iq.iqSquashedNonSpecRemoved           327                       # Number of squashed non-spec instructions that were removed
system.cpu0.iq.iqSquashedOperandsExamined     25378802                       # Number of squashed operands that are examined and possibly removed from graph
system.cpu0.iq.issued_per_cycle::samples   2354292664                       # Number of insts issued each cycle
system.cpu0.iq.issued_per_cycle::mean        0.585059                       # Number of insts issued each cycle
system.cpu0.iq.issued_per_cycle::stdev       0.803257                       # Number of insts issued each cycle
system.cpu0.iq.issued_per_cycle::underflows            0      0.00%      0.00% # Number of insts issued each cycle
system.cpu0.iq.issued_per_cycle::0         1349486772     57.32%     57.32% # Number of insts issued each cycle
system.cpu0.iq.issued_per_cycle::1          703140796     29.87%     87.19% # Number of insts issued each cycle
system.cpu0.iq.issued_per_cycle::2          250180163     10.63%     97.81% # Number of insts issued each cycle
system.cpu0.iq.issued_per_cycle::3           39465095      1.68%     99.49% # Number of insts issued each cycle
system.cpu0.iq.issued_per_cycle::4            7068418      0.30%     99.79% # Number of insts issued each cycle
system.cpu0.iq.issued_per_cycle::5            3200515      0.14%     99.93% # Number of insts issued each cycle
system.cpu0.iq.issued_per_cycle::6            1199917      0.05%     99.98% # Number of insts issued each cycle
system.cpu0.iq.issued_per_cycle::7             381086      0.02%     99.99% # Number of insts issued each cycle
system.cpu0.iq.issued_per_cycle::8             169902      0.01%    100.00% # Number of insts issued each cycle
system.cpu0.iq.issued_per_cycle::overflows            0      0.00%    100.00% # Number of insts issued each cycle
system.cpu0.iq.issued_per_cycle::min_value            0                       # Number of insts issued each cycle
system.cpu0.iq.issued_per_cycle::max_value            8                       # Number of insts issued each cycle
system.cpu0.iq.issued_per_cycle::total     2354292664                       # Number of insts issued each cycle
system.cpu0.iq.rate                          0.547783                       # Inst issue rate
system.cpu0.iq.vec_alu_accesses                     0                       # Number of vector alu accesses
system.cpu0.iq.vec_inst_queue_reads                 0                       # Number of vector instruction queue reads
system.cpu0.iq.vec_inst_queue_wakeup_accesses            0                       # Number of vector instruction queue wakeup accesses
system.cpu0.iq.vec_inst_queue_writes                0                       # Number of vector instruction queue writes
system.cpu0.itb.accesses                            0                       # DTB accesses
system.cpu0.itb.hits                                0                       # DTB hits
system.cpu0.itb.misses                              0                       # DTB misses
system.cpu0.itb.read_accesses                       0                       # DTB read accesses
system.cpu0.itb.read_hits                           0                       # DTB read hits
system.cpu0.itb.read_misses                         0                       # DTB read misses
system.cpu0.itb.write_accesses                      0                       # DTB write accesses
system.cpu0.itb.write_hits                          0                       # DTB write hits
system.cpu0.itb.write_misses                        0                       # DTB write misses
system.cpu0.memDep0.conflictingLoads         17919163                       # Number of conflicting loads.
system.cpu0.memDep0.conflictingStores         1728497                       # Number of conflicting stores.
system.cpu0.memDep0.insertedLoads           430580441                       # Number of loads inserted to the mem dependence unit.
system.cpu0.memDep0.insertedStores          157940693                       # Number of stores inserted to the mem dependence unit.
system.cpu0.misc_regfile_reads                   1909                       # number of misc regfile reads
system.cpu0.misc_regfile_writes                    22                       # number of misc regfile writes
system.cpu0.numCycles                      2514499772                       # number of cpu cycles simulated
system.cpu0.numWorkItemsCompleted                   0                       # number of work items this cpu completed
system.cpu0.numWorkItemsStarted                     0                       # number of work items this cpu started
system.cpu0.quiesceCycles                     5435384                       # Total number of cycles that CPU has spent quiesced or waiting for an interrupt
system.cpu0.rename.BlockCycles              376398054                       # Number of cycles rename is blocking
system.cpu0.rename.CommittedMaps            845199820                       # Number of HB maps that are committed
system.cpu0.rename.IQFullEvents              14738492                       # Number of times rename has blocked due to IQ full
system.cpu0.rename.IdleCycles               956272404                       # Number of cycles rename is idle
system.cpu0.rename.LQFullEvents              11717023                       # Number of times rename has blocked due to LQ full
system.cpu0.rename.ROBFullEvents                17922                       # Number of times rename has blocked due to ROB full
system.cpu0.rename.RenameLookups           1711826515                       # Number of register rename lookups that rename has made
system.cpu0.rename.RenamedInsts            1394037323                       # Number of instructions processed by rename
system.cpu0.rename.RenamedOperands          904231721                       # Number of destination operands rename has renamed
system.cpu0.rename.RunCycles                967828695                       # Number of cycles rename is running
system.cpu0.rename.SQFullEvents              17519916                       # Number of times rename has blocked due to SQ full
system.cpu0.rename.SquashCycles               8755952                       # Number of cycles rename is squashing
system.cpu0.rename.UnblockCycles             44871459                       # Number of cycles rename is unblocking
system.cpu0.rename.UndoneMaps                59031893                       # Number of HB maps that are undone due to squashing
system.cpu0.rename.fp_rename_lookups               40                       # Number of floating rename lookups
system.cpu0.rename.int_rename_lookups      1711826475                       # Number of integer rename lookups
system.cpu0.rename.serializeStallCycles        166100                       # count of cycles rename stalled for serializing inst
system.cpu0.rename.serializingInsts              5907                       # count of serializing insts renamed
system.cpu0.rename.skidInsts                 31623160                       # count of insts added to the skid buffer
system.cpu0.rename.tempSerializingInsts          5892                       # count of temporary serializing insts renamed
system.cpu0.rob.rob_reads                  3687937641                       # The number of ROB reads
system.cpu0.rob.rob_writes                 2777600541                       # The number of ROB writes
system.cpu0.timesIdled                       29810803                       # Number of times that the entire CPU went into an idle state and unscheduled itself
system.cpu0.workload.numSyscalls                 1876                       # Number of system calls
system.cpu1.branchPred.BTBCorrect                   0                       # Number of correct BTB predictions (this stat may not work properly.
system.cpu1.branchPred.BTBHitPct            90.725247                       # BTB Hit Percentage
system.cpu1.branchPred.BTBHits               20248390                       # Number of BTB hits
system.cpu1.branchPred.BTBLookups            22318363                       # Number of BTB lookups
system.cpu1.branchPred.RASInCorrect                 0                       # Number of incorrect RAS predictions.
system.cpu1.branchPred.condIncorrect          2743248                       # Number of conditional branches incorrect
system.cpu1.branchPred.condPredicted         30022787                       # Number of conditional branches predicted
system.cpu1.branchPred.indirectHits           1039337                       # Number of indirect target hits.
system.cpu1.branchPred.indirectLookups        1055896                       # Number of indirect predictor lookups.
system.cpu1.branchPred.indirectMisses           16559                       # Number of indirect misses.
system.cpu1.branchPred.lookups               34491619                       # Number of BP lookups
system.cpu1.branchPred.usedRAS                      0                       # Number of times the RAS was used to get a target.
system.cpu1.branchPredindirectMispredicted        48110                       # Number of mispredicted indirect branches.
system.cpu1.commit.amos                       2100002                       # Number of atomic instructions committed
system.cpu1.commit.branchMispredicts          1952254                       # The number of times a branch was mispredicted
system.cpu1.commit.branches                  28120298                       # Number of branches committed
system.cpu1.commit.bw_lim_events              3650148                       # number cycles where commit BW limit reached
system.cpu1.commit.commitNonSpecStalls        6300697                       # The number of times commit has been forced to stall to communicate backwards
system.cpu1.commit.commitSquashedInsts       14695640                       # The number of squashed insts skipped by commit
system.cpu1.commit.committedInsts           120070920                       # Number of instructions committed
system.cpu1.commit.committedOps             122171103                       # Number of ops (including micro ops) committed
system.cpu1.commit.committed_per_cycle::samples    441098734                       # Number of insts commited each cycle
system.cpu1.commit.committed_per_cycle::mean     0.276970                       # Number of insts commited each cycle
system.cpu1.commit.committed_per_cycle::stdev     1.034218                       # Number of insts commited each cycle
system.cpu1.commit.committed_per_cycle::underflows            0      0.00%      0.00% # Number of insts commited each cycle
system.cpu1.commit.committed_per_cycle::0    390030633     88.42%     88.42% # Number of insts commited each cycle
system.cpu1.commit.committed_per_cycle::1     25586113      5.80%     94.22% # Number of insts commited each cycle
system.cpu1.commit.committed_per_cycle::2      9255824      2.10%     96.32% # Number of insts commited each cycle
system.cpu1.commit.committed_per_cycle::3      7403812      1.68%     98.00% # Number of insts commited each cycle
system.cpu1.commit.committed_per_cycle::4      2011554      0.46%     98.46% # Number of insts commited each cycle
system.cpu1.commit.committed_per_cycle::5       680107      0.15%     98.61% # Number of insts commited each cycle
system.cpu1.commit.committed_per_cycle::6      2149830      0.49%     99.10% # Number of insts commited each cycle
system.cpu1.commit.committed_per_cycle::7       330713      0.07%     99.17% # Number of insts commited each cycle
system.cpu1.commit.committed_per_cycle::8      3650148      0.83%    100.00% # Number of insts commited each cycle
system.cpu1.commit.committed_per_cycle::overflows            0      0.00%    100.00% # Number of insts commited each cycle
system.cpu1.commit.committed_per_cycle::min_value            0                       # Number of insts commited each cycle
system.cpu1.commit.committed_per_cycle::max_value            8                       # Number of insts commited each cycle
system.cpu1.commit.committed_per_cycle::total    441098734                       # Number of insts commited each cycle
system.cpu1.commit.fp_insts                        12                       # Number of committed floating point instructions.
system.cpu1.commit.function_calls             1798123                       # Number of function calls committed.
system.cpu1.commit.int_insts                116608137                       # Number of committed integer instructions.
system.cpu1.commit.loads                     30176780                       # Number of loads committed
system.cpu1.commit.membars                    4200127                       # Number of memory barriers committed
system.cpu1.commit.op_class_0::No_OpClass      4200127      3.44%      3.44% # Class of committed instruction
system.cpu1.commit.op_class_0::IntAlu        76671557     62.76%     66.20% # Class of committed instruction
system.cpu1.commit.op_class_0::IntMult             44      0.00%     66.20% # Class of committed instruction
system.cpu1.commit.op_class_0::IntDiv              88      0.00%     66.20% # Class of committed instruction
system.cpu1.commit.op_class_0::FloatAdd             0      0.00%     66.20% # Class of committed instruction
system.cpu1.commit.op_class_0::FloatCmp             0      0.00%     66.20% # Class of committed instruction
system.cpu1.commit.op_class_0::FloatCvt             0      0.00%     66.20% # Class of committed instruction
system.cpu1.commit.op_class_0::FloatMult            0      0.00%     66.20% # Class of committed instruction
system.cpu1.commit.op_class_0::FloatMultAcc            0      0.00%     66.20% # Class of committed instruction
system.cpu1.commit.op_class_0::FloatDiv             0      0.00%     66.20% # Class of committed instruction
system.cpu1.commit.op_class_0::FloatMisc            0      0.00%     66.20% # Class of committed instruction
system.cpu1.commit.op_class_0::FloatSqrt            0      0.00%     66.20% # Class of committed instruction
system.cpu1.commit.op_class_0::SimdAdd              0      0.00%     66.20% # Class of committed instruction
system.cpu1.commit.op_class_0::SimdAddAcc            0      0.00%     66.20% # Class of committed instruction
system.cpu1.commit.op_class_0::SimdAlu              0      0.00%     66.20% # Class of committed instruction
system.cpu1.commit.op_class_0::SimdCmp              0      0.00%     66.20% # Class of committed instruction
system.cpu1.commit.op_class_0::SimdCvt              0      0.00%     66.20% # Class of committed instruction
system.cpu1.commit.op_class_0::SimdMisc             0      0.00%     66.20% # Class of committed instruction
system.cpu1.commit.op_class_0::SimdMult             0      0.00%     66.20% # Class of committed instruction
system.cpu1.commit.op_class_0::SimdMultAcc            0      0.00%     66.20% # Class of committed instruction
system.cpu1.commit.op_class_0::SimdShift            0      0.00%     66.20% # Class of committed instruction
system.cpu1.commit.op_class_0::SimdShiftAcc            0      0.00%     66.20% # Class of committed instruction
system.cpu1.commit.op_class_0::SimdDiv              0      0.00%     66.20% # Class of committed instruction
system.cpu1.commit.op_class_0::SimdSqrt             0      0.00%     66.20% # Class of committed instruction
system.cpu1.commit.op_class_0::SimdFloatAdd            0      0.00%     66.20% # Class of committed instruction
system.cpu1.commit.op_class_0::SimdFloatAlu            0      0.00%     66.20% # Class of committed instruction
system.cpu1.commit.op_class_0::SimdFloatCmp            0      0.00%     66.20% # Class of committed instruction
system.cpu1.commit.op_class_0::SimdFloatCvt            0      0.00%     66.20% # Class of committed instruction
system.cpu1.commit.op_class_0::SimdFloatDiv            0      0.00%     66.20% # Class of committed instruction
system.cpu1.commit.op_class_0::SimdFloatMisc            0      0.00%     66.20% # Class of committed instruction
system.cpu1.commit.op_class_0::SimdFloatMult            0      0.00%     66.20% # Class of committed instruction
system.cpu1.commit.op_class_0::SimdFloatMultAcc            0      0.00%     66.20% # Class of committed instruction
system.cpu1.commit.op_class_0::SimdFloatSqrt            0      0.00%     66.20% # Class of committed instruction
system.cpu1.commit.op_class_0::SimdReduceAdd            0      0.00%     66.20% # Class of committed instruction
system.cpu1.commit.op_class_0::SimdReduceAlu            0      0.00%     66.20% # Class of committed instruction
system.cpu1.commit.op_class_0::SimdReduceCmp            0      0.00%     66.20% # Class of committed instruction
system.cpu1.commit.op_class_0::SimdFloatReduceAdd            0      0.00%     66.20% # Class of committed instruction
system.cpu1.commit.op_class_0::SimdFloatReduceCmp            0      0.00%     66.20% # Class of committed instruction
system.cpu1.commit.op_class_0::SimdAes              0      0.00%     66.20% # Class of committed instruction
system.cpu1.commit.op_class_0::SimdAesMix            0      0.00%     66.20% # Class of committed instruction
system.cpu1.commit.op_class_0::SimdSha1Hash            0      0.00%     66.20% # Class of committed instruction
system.cpu1.commit.op_class_0::SimdSha1Hash2            0      0.00%     66.20% # Class of committed instruction
system.cpu1.commit.op_class_0::SimdSha256Hash            0      0.00%     66.20% # Class of committed instruction
system.cpu1.commit.op_class_0::SimdSha256Hash2            0      0.00%     66.20% # Class of committed instruction
system.cpu1.commit.op_class_0::SimdShaSigma2            0      0.00%     66.20% # Class of committed instruction
system.cpu1.commit.op_class_0::SimdShaSigma3            0      0.00%     66.20% # Class of committed instruction
system.cpu1.commit.op_class_0::SimdPredAlu            0      0.00%     66.20% # Class of committed instruction
system.cpu1.commit.op_class_0::MemRead       32276782     26.42%     92.61% # Class of committed instruction
system.cpu1.commit.op_class_0::MemWrite       9022493      7.39%    100.00% # Class of committed instruction
system.cpu1.commit.op_class_0::FloatMemRead            0      0.00%    100.00% # Class of committed instruction
system.cpu1.commit.op_class_0::FloatMemWrite           12      0.00%    100.00% # Class of committed instruction
system.cpu1.commit.op_class_0::IprAccess            0      0.00%    100.00% # Class of committed instruction
system.cpu1.commit.op_class_0::InstPrefetch            0      0.00%    100.00% # Class of committed instruction
system.cpu1.commit.op_class_0::total        122171103                       # Class of committed instruction
system.cpu1.commit.refs                      41299287                       # Number of memory references committed
system.cpu1.commit.swp_count                        0                       # Number of s/w prefetches committed
system.cpu1.commit.vec_insts                        0                       # Number of committed Vector instructions.
system.cpu1.committedInsts                  120070920                       # Number of Instructions Simulated
system.cpu1.committedOps                    122171103                       # Number of Ops (including micro ops) Simulated
system.cpu1.cpi                              3.703933                       # CPI: Cycles Per Instruction
system.cpu1.cpi_total                        3.703933                       # CPI: Total CPI of All Threads
system.cpu1.decode.BlockedCycles            348630341                       # Number of cycles decode is blocked
system.cpu1.decode.BranchMispred               869020                       # Number of times decode detected a branch misprediction
system.cpu1.decode.BranchResolved            19418598                       # Number of times decode resolved a branch
system.cpu1.decode.DecodedInsts             143452202                       # Number of instructions handled by decode
system.cpu1.decode.IdleCycles                23031803                       # Number of cycles decode is idle
system.cpu1.decode.RunCycles                 65516638                       # Number of cycles decode is running
system.cpu1.decode.SquashCycles               1953436                       # Number of cycles decode is squashing
system.cpu1.decode.SquashedInsts              1988959                       # Number of squashed instructions handled by decode
system.cpu1.decode.UnblockCycles              5061380                       # Number of cycles decode is unblocking
system.cpu1.dtb.accesses                            0                       # DTB accesses
system.cpu1.dtb.hits                                0                       # DTB hits
system.cpu1.dtb.misses                              0                       # DTB misses
system.cpu1.dtb.read_accesses                       0                       # DTB read accesses
system.cpu1.dtb.read_hits                           0                       # DTB read hits
system.cpu1.dtb.read_misses                         0                       # DTB read misses
system.cpu1.dtb.write_accesses                      0                       # DTB write accesses
system.cpu1.dtb.write_hits                          0                       # DTB write hits
system.cpu1.dtb.write_misses                        0                       # DTB write misses
system.cpu1.fetch.Branches                   34491619                       # Number of branches that fetch encountered
system.cpu1.fetch.CacheLines                 21148091                       # Number of cache lines fetched
system.cpu1.fetch.Cycles                    418681133                       # Number of cycles fetch has run and was not squashing or blocked
system.cpu1.fetch.IcacheSquashes               195368                       # Number of outstanding Icache misses that were squashed
system.cpu1.fetch.IcacheWaitRetryStallCycles           21                       # Number of stall cycles due to full MSHR
system.cpu1.fetch.Insts                     148141230                       # Number of instructions fetch has processed
system.cpu1.fetch.MiscStallCycles                   2                       # Number of cycles fetch has spent waiting on interrupts, or bad addresses, or out of MSHRs
system.cpu1.fetch.SquashCycles                5488860                       # Number of cycles fetch has spent squashing
system.cpu1.fetch.branchRate                 0.077556                       # Number of branch fetches per cycle
system.cpu1.fetch.icacheStallCycles          22768012                       # Number of cycles fetch is stalled on an Icache miss
system.cpu1.fetch.predictedBranches          21287727                       # Number of branches that fetch has predicted taken
system.cpu1.fetch.rate                       0.333100                       # Number of inst fetches per cycle
system.cpu1.fetch.rateDist::samples         444193598                       # Number of instructions fetched each cycle (Total)
system.cpu1.fetch.rateDist::mean             0.338236                       # Number of instructions fetched each cycle (Total)
system.cpu1.fetch.rateDist::stdev            0.762029                       # Number of instructions fetched each cycle (Total)
system.cpu1.fetch.rateDist::underflows              0      0.00%      0.00% # Number of instructions fetched each cycle (Total)
system.cpu1.fetch.rateDist::0               348718891     78.51%     78.51% # Number of instructions fetched each cycle (Total)
system.cpu1.fetch.rateDist::1                60457753     13.61%     92.12% # Number of instructions fetched each cycle (Total)
system.cpu1.fetch.rateDist::2                19374049      4.36%     96.48% # Number of instructions fetched each cycle (Total)
system.cpu1.fetch.rateDist::3                12101784      2.72%     99.20% # Number of instructions fetched each cycle (Total)
system.cpu1.fetch.rateDist::4                 3037910      0.68%     99.89% # Number of instructions fetched each cycle (Total)
system.cpu1.fetch.rateDist::5                  440923      0.10%     99.99% # Number of instructions fetched each cycle (Total)
system.cpu1.fetch.rateDist::6                   61527      0.01%    100.00% # Number of instructions fetched each cycle (Total)
system.cpu1.fetch.rateDist::7                     543      0.00%    100.00% # Number of instructions fetched each cycle (Total)
system.cpu1.fetch.rateDist::8                     218      0.00%    100.00% # Number of instructions fetched each cycle (Total)
system.cpu1.fetch.rateDist::overflows               0      0.00%    100.00% # Number of instructions fetched each cycle (Total)
system.cpu1.fetch.rateDist::min_value               0                       # Number of instructions fetched each cycle (Total)
system.cpu1.fetch.rateDist::max_value               8                       # Number of instructions fetched each cycle (Total)
system.cpu1.fetch.rateDist::total           444193598                       # Number of instructions fetched each cycle (Total)
system.cpu1.fp_regfile_reads                       12                       # number of floating regfile reads
system.cpu1.idleCycles                         541062                       # Total number of cycles that the CPU has spent unscheduled due to idling
system.cpu1.iew.branchMispredicts             2044844                       # Number of branch mispredicts detected at execute
system.cpu1.iew.exec_branches                30224406                       # Number of branches executed
system.cpu1.iew.exec_nop                            0                       # number of nop insts executed
system.cpu1.iew.exec_rate                    0.297186                       # Inst execution rate
system.cpu1.iew.exec_refs                    45181665                       # number of memory reference insts executed
system.cpu1.iew.exec_stores                  11481875                       # Number of stores executed
system.cpu1.iew.exec_swp                            0                       # number of swp insts executed
system.cpu1.iew.iewBlockCycles              294611711                       # Number of cycles IEW is blocking
system.cpu1.iew.iewDispLoadInsts             34469535                       # Number of dispatched load instructions
system.cpu1.iew.iewDispNonSpecInsts           2100687                       # Number of dispatched non-speculative instructions
system.cpu1.iew.iewDispSquashedInsts          1929040                       # Number of squashed instructions skipped by dispatch
system.cpu1.iew.iewDispStoreInsts            11818424                       # Number of dispatched store instructions
system.cpu1.iew.iewDispatchedInsts          136826162                       # Number of instructions dispatched to IQ
system.cpu1.iew.iewExecLoadInsts             33699790                       # Number of load instructions executed
system.cpu1.iew.iewExecSquashedInsts          1989581                       # Number of squashed instructions skipped in execute
system.cpu1.iew.iewExecutedInsts            132168793                       # Number of executed instructions
system.cpu1.iew.iewIQFullEvents               1415360                       # Number of times the IQ has become full, causing a stall
system.cpu1.iew.iewIdleCycles                       0                       # Number of cycles IEW is idle
system.cpu1.iew.iewLSQFullEvents              5228601                       # Number of times the LSQ has become full, causing a stall
system.cpu1.iew.iewSquashCycles               1953436                       # Number of cycles IEW is squashing
system.cpu1.iew.iewUnblockCycles              9164752                       # Number of cycles IEW is unblocking
system.cpu1.iew.lsq.thread0.blockedLoads            0                       # Number of blocked loads due to partial load-store forwarding
system.cpu1.iew.lsq.thread0.cacheBlocked        69960                       # Number of times an access to memory failed due to the cache being blocked
system.cpu1.iew.lsq.thread0.forwLoads          855649                       # Number of loads that had data forwarded from stores
system.cpu1.iew.lsq.thread0.ignoredResponses        25566                       # Number of memory responses ignored because the instruction is squashed
system.cpu1.iew.lsq.thread0.invAddrLoads            0                       # Number of loads ignored due to an invalid address
system.cpu1.iew.lsq.thread0.invAddrSwpfs            0                       # Number of software prefetches ignored due to an invalid address
system.cpu1.iew.lsq.thread0.memOrderViolation         1536                       # Number of memory ordering violations
system.cpu1.iew.lsq.thread0.rescheduledLoads         9455                       # Number of loads that were rescheduled
system.cpu1.iew.lsq.thread0.squashedLoads      4292755                       # Number of loads squashed
system.cpu1.iew.lsq.thread0.squashedStores       695917                       # Number of stores squashed
system.cpu1.iew.memOrderViolationEvents          1536                       # Number of memory order violations
system.cpu1.iew.predictedNotTakenIncorrect       527336                       # Number of branches that were predicted not taken incorrectly
system.cpu1.iew.predictedTakenIncorrect       1517508                       # Number of branches that were predicted taken incorrectly
system.cpu1.iew.wb_consumers                 74661353                       # num instructions consuming a value
system.cpu1.iew.wb_count                    130696543                       # cumulative count of insts written-back
system.cpu1.iew.wb_fanout                    0.855692                       # average fanout of values written-back
system.cpu1.iew.wb_producers                 63887118                       # num instructions producing a value
system.cpu1.iew.wb_rate                      0.293875                       # insts written-back per cycle
system.cpu1.iew.wb_sent                     130746429                       # cumulative count of insts sent to commit
system.cpu1.int_regfile_reads               167772849                       # number of integer regfile reads
system.cpu1.int_regfile_writes               87938846                       # number of integer regfile writes
system.cpu1.ipc                              0.269983                       # IPC: Instructions Per Cycle
system.cpu1.ipc_total                        0.269983                       # IPC: Total IPC of All Threads
system.cpu1.iq.FU_type_0::No_OpClass          4200240      3.13%      3.13% # Type of FU issued
system.cpu1.iq.FU_type_0::IntAlu             84239348     62.79%     65.92% # Type of FU issued
system.cpu1.iq.FU_type_0::IntMult                  45      0.00%     65.92% # Type of FU issued
system.cpu1.iq.FU_type_0::IntDiv                   88      0.00%     65.92% # Type of FU issued
system.cpu1.iq.FU_type_0::FloatAdd                  0      0.00%     65.92% # Type of FU issued
system.cpu1.iq.FU_type_0::FloatCmp                  0      0.00%     65.92% # Type of FU issued
system.cpu1.iq.FU_type_0::FloatCvt                  0      0.00%     65.92% # Type of FU issued
system.cpu1.iq.FU_type_0::FloatMult                 0      0.00%     65.92% # Type of FU issued
system.cpu1.iq.FU_type_0::FloatMultAcc              0      0.00%     65.92% # Type of FU issued
system.cpu1.iq.FU_type_0::FloatDiv                  0      0.00%     65.92% # Type of FU issued
system.cpu1.iq.FU_type_0::FloatMisc                 0      0.00%     65.92% # Type of FU issued
system.cpu1.iq.FU_type_0::FloatSqrt                 0      0.00%     65.92% # Type of FU issued
system.cpu1.iq.FU_type_0::SimdAdd                   0      0.00%     65.92% # Type of FU issued
system.cpu1.iq.FU_type_0::SimdAddAcc                0      0.00%     65.92% # Type of FU issued
system.cpu1.iq.FU_type_0::SimdAlu                   0      0.00%     65.92% # Type of FU issued
system.cpu1.iq.FU_type_0::SimdCmp                   0      0.00%     65.92% # Type of FU issued
system.cpu1.iq.FU_type_0::SimdCvt                   0      0.00%     65.92% # Type of FU issued
system.cpu1.iq.FU_type_0::SimdMisc                  0      0.00%     65.92% # Type of FU issued
system.cpu1.iq.FU_type_0::SimdMult                  0      0.00%     65.92% # Type of FU issued
system.cpu1.iq.FU_type_0::SimdMultAcc               0      0.00%     65.92% # Type of FU issued
system.cpu1.iq.FU_type_0::SimdShift                 0      0.00%     65.92% # Type of FU issued
system.cpu1.iq.FU_type_0::SimdShiftAcc              0      0.00%     65.92% # Type of FU issued
system.cpu1.iq.FU_type_0::SimdDiv                   0      0.00%     65.92% # Type of FU issued
system.cpu1.iq.FU_type_0::SimdSqrt                  0      0.00%     65.92% # Type of FU issued
system.cpu1.iq.FU_type_0::SimdFloatAdd              0      0.00%     65.92% # Type of FU issued
system.cpu1.iq.FU_type_0::SimdFloatAlu              0      0.00%     65.92% # Type of FU issued
system.cpu1.iq.FU_type_0::SimdFloatCmp              0      0.00%     65.92% # Type of FU issued
system.cpu1.iq.FU_type_0::SimdFloatCvt              0      0.00%     65.92% # Type of FU issued
system.cpu1.iq.FU_type_0::SimdFloatDiv              0      0.00%     65.92% # Type of FU issued
system.cpu1.iq.FU_type_0::SimdFloatMisc             0      0.00%     65.92% # Type of FU issued
system.cpu1.iq.FU_type_0::SimdFloatMult             0      0.00%     65.92% # Type of FU issued
system.cpu1.iq.FU_type_0::SimdFloatMultAcc            0      0.00%     65.92% # Type of FU issued
system.cpu1.iq.FU_type_0::SimdFloatSqrt             0      0.00%     65.92% # Type of FU issued
system.cpu1.iq.FU_type_0::SimdReduceAdd             0      0.00%     65.92% # Type of FU issued
system.cpu1.iq.FU_type_0::SimdReduceAlu             0      0.00%     65.92% # Type of FU issued
system.cpu1.iq.FU_type_0::SimdReduceCmp             0      0.00%     65.92% # Type of FU issued
system.cpu1.iq.FU_type_0::SimdFloatReduceAdd            0      0.00%     65.92% # Type of FU issued
system.cpu1.iq.FU_type_0::SimdFloatReduceCmp            0      0.00%     65.92% # Type of FU issued
system.cpu1.iq.FU_type_0::SimdAes                   0      0.00%     65.92% # Type of FU issued
system.cpu1.iq.FU_type_0::SimdAesMix                0      0.00%     65.92% # Type of FU issued
system.cpu1.iq.FU_type_0::SimdSha1Hash              0      0.00%     65.92% # Type of FU issued
system.cpu1.iq.FU_type_0::SimdSha1Hash2             0      0.00%     65.92% # Type of FU issued
system.cpu1.iq.FU_type_0::SimdSha256Hash            0      0.00%     65.92% # Type of FU issued
system.cpu1.iq.FU_type_0::SimdSha256Hash2            0      0.00%     65.92% # Type of FU issued
system.cpu1.iq.FU_type_0::SimdShaSigma2             0      0.00%     65.92% # Type of FU issued
system.cpu1.iq.FU_type_0::SimdShaSigma3             0      0.00%     65.92% # Type of FU issued
system.cpu1.iq.FU_type_0::SimdPredAlu               0      0.00%     65.92% # Type of FU issued
system.cpu1.iq.FU_type_0::MemRead            36254889     27.02%     92.95% # Type of FU issued
system.cpu1.iq.FU_type_0::MemWrite            9463752      7.05%    100.00% # Type of FU issued
system.cpu1.iq.FU_type_0::FloatMemRead              0      0.00%    100.00% # Type of FU issued
system.cpu1.iq.FU_type_0::FloatMemWrite            12      0.00%    100.00% # Type of FU issued
system.cpu1.iq.FU_type_0::IprAccess                 0      0.00%    100.00% # Type of FU issued
system.cpu1.iq.FU_type_0::InstPrefetch              0      0.00%    100.00% # Type of FU issued
system.cpu1.iq.FU_type_0::total             134158374                       # Type of FU issued
system.cpu1.iq.fp_alu_accesses                     14                       # Number of floating point alu accesses
system.cpu1.iq.fp_inst_queue_reads                 26                       # Number of floating instruction queue reads
system.cpu1.iq.fp_inst_queue_wakeup_accesses           12                       # Number of floating instruction queue wakeup accesses
system.cpu1.iq.fp_inst_queue_writes                12                       # Number of floating instruction queue writes
system.cpu1.iq.fu_busy_cnt                    2780313                       # FU busy when requested
system.cpu1.iq.fu_busy_rate                  0.020724                       # FU busy rate (busy events/executed inst)
system.cpu1.iq.fu_full::No_OpClass                  0      0.00%      0.00% # attempts to use FU when none available
system.cpu1.iq.fu_full::IntAlu                 556057     20.00%     20.00% # attempts to use FU when none available
system.cpu1.iq.fu_full::IntMult                     0      0.00%     20.00% # attempts to use FU when none available
system.cpu1.iq.fu_full::IntDiv                      0      0.00%     20.00% # attempts to use FU when none available
system.cpu1.iq.fu_full::FloatAdd                    0      0.00%     20.00% # attempts to use FU when none available
system.cpu1.iq.fu_full::FloatCmp                    0      0.00%     20.00% # attempts to use FU when none available
system.cpu1.iq.fu_full::FloatCvt                    0      0.00%     20.00% # attempts to use FU when none available
system.cpu1.iq.fu_full::FloatMult                   0      0.00%     20.00% # attempts to use FU when none available
system.cpu1.iq.fu_full::FloatMultAcc                0      0.00%     20.00% # attempts to use FU when none available
system.cpu1.iq.fu_full::FloatDiv                    0      0.00%     20.00% # attempts to use FU when none available
system.cpu1.iq.fu_full::FloatMisc                   0      0.00%     20.00% # attempts to use FU when none available
system.cpu1.iq.fu_full::FloatSqrt                   0      0.00%     20.00% # attempts to use FU when none available
system.cpu1.iq.fu_full::SimdAdd                     0      0.00%     20.00% # attempts to use FU when none available
system.cpu1.iq.fu_full::SimdAddAcc                  0      0.00%     20.00% # attempts to use FU when none available
system.cpu1.iq.fu_full::SimdAlu                     0      0.00%     20.00% # attempts to use FU when none available
system.cpu1.iq.fu_full::SimdCmp                     0      0.00%     20.00% # attempts to use FU when none available
system.cpu1.iq.fu_full::SimdCvt                     0      0.00%     20.00% # attempts to use FU when none available
system.cpu1.iq.fu_full::SimdMisc                    0      0.00%     20.00% # attempts to use FU when none available
system.cpu1.iq.fu_full::SimdMult                    0      0.00%     20.00% # attempts to use FU when none available
system.cpu1.iq.fu_full::SimdMultAcc                 0      0.00%     20.00% # attempts to use FU when none available
system.cpu1.iq.fu_full::SimdShift                   0      0.00%     20.00% # attempts to use FU when none available
system.cpu1.iq.fu_full::SimdShiftAcc                0      0.00%     20.00% # attempts to use FU when none available
system.cpu1.iq.fu_full::SimdDiv                     0      0.00%     20.00% # attempts to use FU when none available
system.cpu1.iq.fu_full::SimdSqrt                    0      0.00%     20.00% # attempts to use FU when none available
system.cpu1.iq.fu_full::SimdFloatAdd                0      0.00%     20.00% # attempts to use FU when none available
system.cpu1.iq.fu_full::SimdFloatAlu                0      0.00%     20.00% # attempts to use FU when none available
system.cpu1.iq.fu_full::SimdFloatCmp                0      0.00%     20.00% # attempts to use FU when none available
system.cpu1.iq.fu_full::SimdFloatCvt                0      0.00%     20.00% # attempts to use FU when none available
system.cpu1.iq.fu_full::SimdFloatDiv                0      0.00%     20.00% # attempts to use FU when none available
system.cpu1.iq.fu_full::SimdFloatMisc               0      0.00%     20.00% # attempts to use FU when none available
system.cpu1.iq.fu_full::SimdFloatMult               0      0.00%     20.00% # attempts to use FU when none available
system.cpu1.iq.fu_full::SimdFloatMultAcc            0      0.00%     20.00% # attempts to use FU when none available
system.cpu1.iq.fu_full::SimdFloatSqrt               0      0.00%     20.00% # attempts to use FU when none available
system.cpu1.iq.fu_full::SimdReduceAdd               0      0.00%     20.00% # attempts to use FU when none available
system.cpu1.iq.fu_full::SimdReduceAlu               0      0.00%     20.00% # attempts to use FU when none available
system.cpu1.iq.fu_full::SimdReduceCmp               0      0.00%     20.00% # attempts to use FU when none available
system.cpu1.iq.fu_full::SimdFloatReduceAdd            0      0.00%     20.00% # attempts to use FU when none available
system.cpu1.iq.fu_full::SimdFloatReduceCmp            0      0.00%     20.00% # attempts to use FU when none available
system.cpu1.iq.fu_full::SimdAes                     0      0.00%     20.00% # attempts to use FU when none available
system.cpu1.iq.fu_full::SimdAesMix                  0      0.00%     20.00% # attempts to use FU when none available
system.cpu1.iq.fu_full::SimdSha1Hash                0      0.00%     20.00% # attempts to use FU when none available
system.cpu1.iq.fu_full::SimdSha1Hash2               0      0.00%     20.00% # attempts to use FU when none available
system.cpu1.iq.fu_full::SimdSha256Hash              0      0.00%     20.00% # attempts to use FU when none available
system.cpu1.iq.fu_full::SimdSha256Hash2             0      0.00%     20.00% # attempts to use FU when none available
system.cpu1.iq.fu_full::SimdShaSigma2               0      0.00%     20.00% # attempts to use FU when none available
system.cpu1.iq.fu_full::SimdShaSigma3               0      0.00%     20.00% # attempts to use FU when none available
system.cpu1.iq.fu_full::SimdPredAlu                 0      0.00%     20.00% # attempts to use FU when none available
system.cpu1.iq.fu_full::MemRead               1824612     65.63%     85.63% # attempts to use FU when none available
[...]
system.cpu1.dcache.ReadReq_avg_miss_latency::.cpu1.data 73622.944185                       # average ReadReq miss latency
system.cpu1.dcache.ReadReq_avg_miss_latency::total 73622.944185                       # average ReadReq miss latency
system.cpu1.dcache.ReadReq_mshr_hits::.cpu1.data     26890715                       # number of ReadReq MSHR hits
system.cpu1.dcache.ReadReq_mshr_hits::total     26890715                       # number of ReadReq MSHR hits
system.cpu1.dcache.ReadReq_mshr_misses::.cpu1.data     14245159                       # number of ReadReq MSHR misses
system.cpu1.dcache.ReadReq_mshr_misses::total     14245159                       # number of ReadReq MSHR misses
system.cpu1.dcache.ReadReq_mshr_miss_latency::.cpu1.data 1330007681000                       # number of ReadReq MSHR miss cycles
system.cpu1.dcache.ReadReq_mshr_miss_latency::total 1330007681000                       # number of ReadReq MSHR miss cycles
system.cpu1.dcache.ReadReq_mshr_miss_rate::.cpu1.data     0.094610                       # mshr miss rate for ReadReq accesses
system.cpu1.dcache.ReadReq_mshr_miss_rate::total     0.094610                       # mshr miss rate for ReadReq accesses
system.cpu1.dcache.ReadReq_avg_mshr_miss_latency::.cpu1.data 93365.590444                       # average ReadReq mshr miss latency
system.cpu1.dcache.ReadReq_avg_mshr_miss_latency::total 93365.590444                       # average ReadReq mshr miss latency
system.cpu1.dcache.WriteReq_hits::.cpu1.data      5526322                       # number of WriteReq hits
system.cpu1.dcache.WriteReq_hits::total       5526322                       # number of WriteReq hits
system.cpu1.dcache.WriteReq_misses::.cpu1.data      2213363                       # number of WriteReq misses
system.cpu1.dcache.WriteReq_misses::total      2213363                       # number of WriteReq misses
system.cpu1.dcache.WriteReq_miss_latency::.cpu1.data 149223057916                       # number of WriteReq miss cycles
system.cpu1.dcache.WriteReq_miss_latency::total 149223057916                       # number of WriteReq miss cycles
system.cpu1.dcache.WriteReq_accesses::.cpu1.data      7739685                       # number of WriteReq accesses(hits+misses)
system.cpu1.dcache.WriteReq_accesses::total      7739685                       # number of WriteReq accesses(hits+misses)
system.cpu1.dcache.WriteReq_miss_rate::.cpu1.data     0.285976                       # miss rate for WriteReq accesses
system.cpu1.dcache.WriteReq_miss_rate::total     0.285976                       # miss rate for WriteReq accesses
system.cpu1.dcache.WriteReq_avg_miss_latency::.cpu1.data 67419.152627                       # average WriteReq miss latency
system.cpu1.dcache.WriteReq_avg_miss_latency::total 67419.152627                       # average WriteReq miss latency
system.cpu1.dcache.WriteReq_mshr_hits::.cpu1.data      1996915                       # number of WriteReq MSHR hits
system.cpu1.dcache.WriteReq_mshr_hits::total      1996915                       # number of WriteReq MSHR hits
system.cpu1.dcache.WriteReq_mshr_misses::.cpu1.data       216448                       # number of WriteReq MSHR misses
system.cpu1.dcache.WriteReq_mshr_misses::total       216448                       # number of WriteReq MSHR misses
system.cpu1.dcache.WriteReq_mshr_miss_latency::.cpu1.data  13735128921                       # number of WriteReq MSHR miss cycles
system.cpu1.dcache.WriteReq_mshr_miss_latency::total  13735128921                       # number of WriteReq MSHR miss cycles
system.cpu1.dcache.WriteReq_mshr_miss_rate::.cpu1.data     0.027966                       # mshr miss rate for WriteReq accesses
system.cpu1.dcache.WriteReq_mshr_miss_rate::total     0.027966                       # mshr miss rate for WriteReq accesses
system.cpu1.dcache.WriteReq_avg_mshr_miss_latency::.cpu1.data 63456.945414                       # average WriteReq mshr miss latency
system.cpu1.dcache.WriteReq_avg_mshr_miss_latency::total 63456.945414                       # average WriteReq mshr miss latency
system.cpu1.dcache.LoadLockedReq_hits::.cpu1.data         1254                       # number of LoadLockedReq hits
system.cpu1.dcache.LoadLockedReq_hits::total         1254                       # number of LoadLockedReq hits
system.cpu1.dcache.LoadLockedReq_misses::.cpu1.data          278                       # number of LoadLockedReq misses
system.cpu1.dcache.LoadLockedReq_misses::total          278                       # number of LoadLockedReq misses
system.cpu1.dcache.LoadLockedReq_miss_latency::.cpu1.data     20355000                       # number of LoadLockedReq miss cycles
system.cpu1.dcache.LoadLockedReq_miss_latency::total     20355000                       # number of LoadLockedReq miss cycles
system.cpu1.dcache.LoadLockedReq_accesses::.cpu1.data         1532                       # number of LoadLockedReq accesses(hits+misses)
system.cpu1.dcache.LoadLockedReq_accesses::total         1532                       # number of LoadLockedReq accesses(hits+misses)
system.cpu1.dcache.LoadLockedReq_miss_rate::.cpu1.data     0.181462                       # miss rate for LoadLockedReq accesses
system.cpu1.dcache.LoadLockedReq_miss_rate::total     0.181462                       # miss rate for LoadLockedReq accesses
system.cpu1.dcache.LoadLockedReq_avg_miss_latency::.cpu1.data 73219.424460                       # average LoadLockedReq miss latency
system.cpu1.dcache.LoadLockedReq_avg_miss_latency::total 73219.424460                       # average LoadLockedReq miss latency
system.cpu1.dcache.LoadLockedReq_mshr_hits::.cpu1.data          127                       # number of LoadLockedReq MSHR hits
system.cpu1.dcache.LoadLockedReq_mshr_hits::total          127                       # number of LoadLockedReq MSHR hits
system.cpu1.dcache.LoadLockedReq_mshr_misses::.cpu1.data          151                       # number of LoadLockedReq MSHR misses
system.cpu1.dcache.LoadLockedReq_mshr_misses::total          151                       # number of LoadLockedReq MSHR misses
system.cpu1.dcache.LoadLockedReq_mshr_miss_latency::.cpu1.data     11662500                       # number of LoadLockedReq MSHR miss cycles
system.cpu1.dcache.LoadLockedReq_mshr_miss_latency::total     11662500                       # number of LoadLockedReq MSHR miss cycles
system.cpu1.dcache.LoadLockedReq_mshr_miss_rate::.cpu1.data     0.098564                       # mshr miss rate for LoadLockedReq accesses
system.cpu1.dcache.LoadLockedReq_mshr_miss_rate::total     0.098564                       # mshr miss rate for LoadLockedReq accesses
system.cpu1.dcache.LoadLockedReq_avg_mshr_miss_latency::.cpu1.data 77235.099338                       # average LoadLockedReq mshr miss latency
system.cpu1.dcache.LoadLockedReq_avg_mshr_miss_latency::total 77235.099338                       # average LoadLockedReq mshr miss latency
system.cpu1.dcache.StoreCondReq_hits::.cpu1.data         1037                       # number of StoreCondReq hits
system.cpu1.dcache.StoreCondReq_hits::total         1037                       # number of StoreCondReq hits
system.cpu1.dcache.StoreCondReq_misses::.cpu1.data          402                       # number of StoreCondReq misses
system.cpu1.dcache.StoreCondReq_misses::total          402                       # number of StoreCondReq misses
system.cpu1.dcache.StoreCondReq_miss_latency::.cpu1.data      2455500                       # number of StoreCondReq miss cycles
system.cpu1.dcache.StoreCondReq_miss_latency::total      2455500                       # number of StoreCondReq miss cycles
system.cpu1.dcache.StoreCondReq_accesses::.cpu1.data         1439                       # number of StoreCondReq accesses(hits+misses)
system.cpu1.dcache.StoreCondReq_accesses::total         1439                       # number of StoreCondReq accesses(hits+misses)
system.cpu1.dcache.StoreCondReq_miss_rate::.cpu1.data     0.279361                       # miss rate for StoreCondReq accesses
system.cpu1.dcache.StoreCondReq_miss_rate::total     0.279361                       # miss rate for StoreCondReq accesses
system.cpu1.dcache.StoreCondReq_avg_miss_latency::.cpu1.data  6108.208955                       # average StoreCondReq miss latency
system.cpu1.dcache.StoreCondReq_avg_miss_latency::total  6108.208955                       # average StoreCondReq miss latency
system.cpu1.dcache.StoreCondReq_mshr_misses::.cpu1.data          402                       # number of StoreCondReq MSHR misses
system.cpu1.dcache.StoreCondReq_mshr_misses::total          402                       # number of StoreCondReq MSHR misses
system.cpu1.dcache.StoreCondReq_mshr_miss_latency::.cpu1.data      2053500                       # number of StoreCondReq MSHR miss cycles
system.cpu1.dcache.StoreCondReq_mshr_miss_latency::total      2053500                       # number of StoreCondReq MSHR miss cycles
system.cpu1.dcache.StoreCondReq_mshr_miss_rate::.cpu1.data     0.279361                       # mshr miss rate for StoreCondReq accesses
system.cpu1.dcache.StoreCondReq_mshr_miss_rate::total     0.279361                       # mshr miss rate for StoreCondReq accesses
system.cpu1.dcache.StoreCondReq_avg_mshr_miss_latency::.cpu1.data  5108.208955                       # average StoreCondReq mshr miss latency
system.cpu1.dcache.StoreCondReq_avg_mshr_miss_latency::total  5108.208955                       # average StoreCondReq mshr miss latency
system.cpu1.dcache.SwapReq_hits::.cpu1.data          561                       # number of SwapReq hits
system.cpu1.dcache.SwapReq_hits::total            561                       # number of SwapReq hits
system.cpu1.dcache.SwapReq_misses::.cpu1.data          255                       # number of SwapReq misses
system.cpu1.dcache.SwapReq_misses::total          255                       # number of SwapReq misses
system.cpu1.dcache.SwapReq_miss_latency::.cpu1.data      1170000                       # number of SwapReq miss cycles
system.cpu1.dcache.SwapReq_miss_latency::total      1170000                       # number of SwapReq miss cycles
system.cpu1.dcache.SwapReq_accesses::.cpu1.data          816                       # number of SwapReq accesses(hits+misses)
system.cpu1.dcache.SwapReq_accesses::total          816                       # number of SwapReq accesses(hits+misses)
system.cpu1.dcache.SwapReq_miss_rate::.cpu1.data     0.312500                       # miss rate for SwapReq accesses
system.cpu1.dcache.SwapReq_miss_rate::total     0.312500                       # miss rate for SwapReq accesses
system.cpu1.dcache.SwapReq_avg_miss_latency::.cpu1.data  4588.235294                       # average SwapReq miss latency
system.cpu1.dcache.SwapReq_avg_miss_latency::total  4588.235294                       # average SwapReq miss latency
system.cpu1.dcache.SwapReq_mshr_misses::.cpu1.data          255                       # number of SwapReq MSHR misses
system.cpu1.dcache.SwapReq_mshr_misses::total          255                       # number of SwapReq MSHR misses
system.cpu1.dcache.SwapReq_mshr_miss_latency::.cpu1.data       915000                       # number of SwapReq MSHR miss cycles
system.cpu1.dcache.SwapReq_mshr_miss_latency::total       915000                       # number of SwapReq MSHR miss cycles
system.cpu1.dcache.SwapReq_mshr_miss_rate::.cpu1.data     0.312500                       # mshr miss rate for SwapReq accesses
system.cpu1.dcache.SwapReq_mshr_miss_rate::total     0.312500                       # mshr miss rate for SwapReq accesses
system.cpu1.dcache.SwapReq_avg_mshr_miss_latency::.cpu1.data  3588.235294                       # average SwapReq mshr miss latency
system.cpu1.dcache.SwapReq_avg_mshr_miss_latency::total  3588.235294                       # average SwapReq mshr miss latency
system.cpu1.dcache.tags.pwrStateResidencyTicks::UNDEFINED 1872396979500                       # Cumulative time (in ticks) in various power states
system.cpu1.dcache.tags.tagsinuse           31.818625                       # Cycle average of tags in use
system.cpu1.dcache.tags.total_refs          129425438                       # Total number of references to valid blocks.
system.cpu1.dcache.tags.sampled_refs         14461310                       # Sample count of references to valid blocks.
system.cpu1.dcache.tags.avg_refs             8.949773                       # Average number of references to valid blocks.
system.cpu1.dcache.tags.warmup_cycle                0                       # Cycle when the warmup percentage was hit.
system.cpu1.dcache.tags.occ_blocks::.cpu1.data    31.818625                       # Average occupied blocks per requestor
system.cpu1.dcache.tags.occ_percent::.cpu1.data     0.994332                       # Average percentage of cache occupancy
system.cpu1.dcache.tags.occ_percent::total     0.994332                       # Average percentage of cache occupancy
system.cpu1.dcache.tags.occ_task_id_blocks::1024           29                       # Occupied blocks per task id
system.cpu1.dcache.tags.age_task_id_blocks_1024::1           29                       # Occupied blocks per task id
system.cpu1.dcache.tags.occ_task_id_percent::1024     0.906250                       # Percentage of cache occupancy per task id
system.cpu1.dcache.tags.tag_accesses        331083933                       # Number of tag accesses
system.cpu1.dcache.tags.data_accesses       331083933                       # Number of data accesses
system.cpu_clk_domain.clock                       500                       # Clock period in ticks
system.tol2bus.pwrStateResidencyTicks::UNDEFINED 1872396979500                       # Cumulative time (in ticks) in various power states
system.tol2bus.trans_dist::ReadResp          67495378                       # Transaction distribution
system.tol2bus.trans_dist::WritebackDirty     10183310                       # Transaction distribution
system.tol2bus.trans_dist::WritebackClean     62779249                       # Transaction distribution
system.tol2bus.trans_dist::CleanEvict       118198649                       # Transaction distribution
system.tol2bus.trans_dist::HardPFReq         33020219                       # Transaction distribution
system.tol2bus.trans_dist::HardPFResp               1                       # Transaction distribution
system.tol2bus.trans_dist::UpgradeReq            2227                       # Transaction distribution
system.tol2bus.trans_dist::SCUpgradeReq           846                       # Transaction distribution
system.tol2bus.trans_dist::UpgradeResp           3073                       # Transaction distribution
system.tol2bus.trans_dist::ReadExReq           450997                       # Transaction distribution
system.tol2bus.trans_dist::ReadExResp          450997                       # Transaction distribution
system.tol2bus.trans_dist::ReadCleanReq         26471                       # Transaction distribution
system.tol2bus.trans_dist::ReadSharedReq     67468909                       # Transaction distribution
system.tol2bus.pkt_count_system.cpu0.icache.mem_side::system.l2.cpu_side        64246                       # Packet count per connected master and slave (bytes)
system.tol2bus.pkt_count_system.cpu0.dcache.mem_side::system.l2.cpu_side    160375220                       # Packet count per connected master and slave (bytes)
system.tol2bus.pkt_count_system.cpu1.icache.mem_side::system.l2.cpu_side        15165                       # Packet count per connected master and slave (bytes)
system.tol2bus.pkt_count_system.cpu1.dcache.mem_side::system.l2.cpu_side     43380163                       # Packet count per connected master and slave (bytes)
system.tol2bus.pkt_count::total             203834794                       # Packet count per connected master and slave (bytes)
system.tol2bus.pkt_size_system.cpu0.icache.mem_side::system.l2.cpu_side      2741120                       # Cumulative packet size per connected master and slave (bytes)
system.tol2bus.pkt_size_system.cpu0.dcache.mem_side::system.l2.cpu_side   6842494272                       # Cumulative packet size per connected master and slave (bytes)
system.tol2bus.pkt_size_system.cpu1.icache.mem_side::system.l2.cpu_side       647040                       # Cumulative packet size per connected master and slave (bytes)
system.tol2bus.pkt_size_system.cpu1.dcache.mem_side::system.l2.cpu_side   1850720832                       # Cumulative packet size per connected master and slave (bytes)
system.tol2bus.pkt_size::total             8696603264                       # Cumulative packet size per connected master and slave (bytes)
system.tol2bus.snoops                       156245533                       # Total snoops (count)
system.tol2bus.snoopTraffic                 321568640                       # Total snoop traffic (bytes)
system.tol2bus.snoop_fanout::samples        224188110                       # Request fanout histogram
system.tol2bus.snoop_fanout::mean            0.206619                       # Request fanout histogram
system.tol2bus.snoop_fanout::stdev           0.412127                       # Request fanout histogram
system.tol2bus.snoop_fanout::underflows             0      0.00%      0.00% # Request fanout histogram
system.tol2bus.snoop_fanout::0              178530457     79.63%     79.63% # Request fanout histogram
system.tol2bus.snoop_fanout::1               44993894     20.07%     99.70% # Request fanout histogram
system.tol2bus.snoop_fanout::2                 663759      0.30%    100.00% # Request fanout histogram
system.tol2bus.snoop_fanout::3                      0      0.00%    100.00% # Request fanout histogram
system.tol2bus.snoop_fanout::4                      0      0.00%    100.00% # Request fanout histogram
system.tol2bus.snoop_fanout::5                      0      0.00%    100.00% # Request fanout histogram
system.tol2bus.snoop_fanout::6                      0      0.00%    100.00% # Request fanout histogram
system.tol2bus.snoop_fanout::7                      0      0.00%    100.00% # Request fanout histogram
system.tol2bus.snoop_fanout::8                      0      0.00%    100.00% # Request fanout histogram
system.tol2bus.snoop_fanout::overflows              0      0.00%    100.00% # Request fanout histogram
system.tol2bus.snoop_fanout::min_value              0                       # Request fanout histogram
system.tol2bus.snoop_fanout::max_value              2                       # Request fanout histogram
system.tol2bus.snoop_fanout::total          224188110                       # Request fanout histogram
system.tol2bus.reqLayer0.occupancy       135889074374                       # Layer occupancy (ticks)
system.tol2bus.reqLayer0.utilization              7.3                       # Layer utilization (%)
system.tol2bus.respLayer1.occupancy       80202467322                       # Layer occupancy (ticks)
system.tol2bus.respLayer1.utilization             4.3                       # Layer utilization (%)
system.tol2bus.respLayer0.occupancy          32167410                       # Layer occupancy (ticks)
system.tol2bus.respLayer0.utilization             0.0                       # Layer utilization (%)
system.tol2bus.respLayer3.occupancy       21698903646                       # Layer occupancy (ticks)
system.tol2bus.respLayer3.utilization             1.2                       # Layer utilization (%)
system.tol2bus.respLayer2.occupancy           7600464                       # Layer occupancy (ticks)
system.tol2bus.respLayer2.utilization             0.0                       # Layer utilization (%)
system.tol2bus.snoopLayer0.occupancy             1501                       # Layer occupancy (ticks)
system.tol2bus.snoopLayer0.utilization            0.0                       # Layer utilization (%)

---------- End Simulation Statistics   ----------
