
---------- Begin Simulation Statistics ----------
final_tick                               866590784000                       # Number of ticks from beginning of simulation (restored from checkpoints and never reset)
host_inst_rate                                  95714                       # Simulator instruction rate (inst/s)
host_mem_usage                                 739332                       # Number of bytes of host memory used
host_op_rate                                    96022                       # Simulator op (including micro ops) rate (op/s)
host_seconds                                 10641.26                       # Real time elapsed on the host
host_tick_rate                               81436831                       # Simulator tick rate (ticks/s)
sim_freq                                 1000000000000                       # Frequency of simulated ticks
sim_insts                                  1018518388                       # Number of instructions simulated
sim_ops                                    1021800028                       # Number of ops (including micro ops) simulated
sim_seconds                                  0.866591                       # Number of seconds simulated
sim_ticks                                866590784000                       # Number of ticks simulated
system.cpu0.branchPred.BTBCorrect                   0                       # Number of correct BTB predictions (this stat may not work properly.
system.cpu0.branchPred.BTBHitPct            87.463851                       # BTB Hit Percentage
system.cpu0.branchPred.BTBHits              120955461                       # Number of BTB hits
system.cpu0.branchPred.BTBLookups           138291946                       # Number of BTB lookups
system.cpu0.branchPred.RASInCorrect                 0                       # Number of incorrect RAS predictions.
system.cpu0.branchPred.condIncorrect         16597858                       # Number of conditional branches incorrect
system.cpu0.branchPred.condPredicted        189063907                       # Number of conditional branches predicted
system.cpu0.branchPred.indirectHits          16300305                       # Number of indirect target hits.
system.cpu0.branchPred.indirectLookups       16414273                       # Number of indirect predictor lookups.
system.cpu0.branchPred.indirectMisses          113968                       # Number of indirect misses.
system.cpu0.branchPred.lookups              239795130                       # Number of BP lookups
system.cpu0.branchPred.usedRAS                      0                       # Number of times the RAS was used to get a target.
system.cpu0.branchPredindirectMispredicted      1662374                       # Number of mispredicted indirect branches.
system.cpu0.commit.amos                        819898                       # Number of atomic instructions committed
system.cpu0.commit.branchMispredicts          9832186                       # The number of times a branch was mispredicted
system.cpu0.commit.branches                 221016948                       # Number of branches committed
system.cpu0.commit.bw_lim_events             28810897                       # number cycles where commit BW limit reached
system.cpu0.commit.commitNonSpecStalls        2466248                       # The number of times commit has been forced to stall to communicate backwards
system.cpu0.commit.commitSquashedInsts       59768440                       # The number of squashed insts skipped by commit
system.cpu0.commit.committedInsts           892414400                       # Number of instructions committed
system.cpu0.commit.committedOps             893236510                       # Number of ops (including micro ops) committed
system.cpu0.commit.committed_per_cycle::samples   1558141819                       # Number of insts commited each cycle
system.cpu0.commit.committed_per_cycle::mean     0.573270                       # Number of insts commited each cycle
system.cpu0.commit.committed_per_cycle::stdev     1.385645                       # Number of insts commited each cycle
system.cpu0.commit.committed_per_cycle::underflows            0      0.00%      0.00% # Number of insts commited each cycle
system.cpu0.commit.committed_per_cycle::0   1143352807     73.38%     73.38% # Number of insts commited each cycle
system.cpu0.commit.committed_per_cycle::1    242666244     15.57%     88.95% # Number of insts commited each cycle
system.cpu0.commit.committed_per_cycle::2     60716172      3.90%     92.85% # Number of insts commited each cycle
system.cpu0.commit.committed_per_cycle::3     54431174      3.49%     96.34% # Number of insts commited each cycle
system.cpu0.commit.committed_per_cycle::4     15990533      1.03%     97.37% # Number of insts commited each cycle
system.cpu0.commit.committed_per_cycle::5      5866546      0.38%     97.75% # Number of insts commited each cycle
system.cpu0.commit.committed_per_cycle::6      2089760      0.13%     97.88% # Number of insts commited each cycle
system.cpu0.commit.committed_per_cycle::7      4217686      0.27%     98.15% # Number of insts commited each cycle
system.cpu0.commit.committed_per_cycle::8     28810897      1.85%    100.00% # Number of insts commited each cycle
system.cpu0.commit.committed_per_cycle::overflows            0      0.00%    100.00% # Number of insts commited each cycle
system.cpu0.commit.committed_per_cycle::min_value            0                       # Number of insts commited each cycle
system.cpu0.commit.committed_per_cycle::max_value            8                       # Number of insts commited each cycle
system.cpu0.commit.committed_per_cycle::total   1558141819                       # Number of insts commited each cycle
system.cpu0.commit.fp_insts                        65                       # Number of committed floating point instructions.
system.cpu0.commit.function_calls            18341583                       # Number of function calls committed.
system.cpu0.commit.int_insts                863524296                       # Number of committed integer instructions.
system.cpu0.commit.loads                    280414337                       # Number of loads committed
system.cpu0.commit.membars                    1641861                       # Number of memory barriers committed
system.cpu0.commit.op_class_0::No_OpClass      1641870      0.18%      0.18% # Class of committed instruction
system.cpu0.commit.op_class_0::IntAlu       491124008     54.98%     55.17% # Class of committed instruction
system.cpu0.commit.op_class_0::IntMult        7835040      0.88%     56.04% # Class of committed instruction
system.cpu0.commit.op_class_0::IntDiv         1638717      0.18%     56.23% # Class of committed instruction
system.cpu0.commit.op_class_0::FloatAdd             0      0.00%     56.23% # Class of committed instruction
system.cpu0.commit.op_class_0::FloatCmp             6      0.00%     56.23% # Class of committed instruction
system.cpu0.commit.op_class_0::FloatCvt            16      0.00%     56.23% # Class of committed instruction
system.cpu0.commit.op_class_0::FloatMult            0      0.00%     56.23% # Class of committed instruction
system.cpu0.commit.op_class_0::FloatMultAcc            0      0.00%     56.23% # Class of committed instruction
system.cpu0.commit.op_class_0::FloatDiv             2      0.00%     56.23% # Class of committed instruction
system.cpu0.commit.op_class_0::FloatMisc            6      0.00%     56.23% # Class of committed instruction
system.cpu0.commit.op_class_0::FloatSqrt            0      0.00%     56.23% # Class of committed instruction
system.cpu0.commit.op_class_0::SimdAdd              0      0.00%     56.23% # Class of committed instruction
system.cpu0.commit.op_class_0::SimdAddAcc            0      0.00%     56.23% # Class of committed instruction
system.cpu0.commit.op_class_0::SimdAlu              0      0.00%     56.23% # Class of committed instruction
system.cpu0.commit.op_class_0::SimdCmp              0      0.00%     56.23% # Class of committed instruction
system.cpu0.commit.op_class_0::SimdCvt              0      0.00%     56.23% # Class of committed instruction
system.cpu0.commit.op_class_0::SimdMisc             0      0.00%     56.23% # Class of committed instruction
system.cpu0.commit.op_class_0::SimdMult             0      0.00%     56.23% # Class of committed instruction
system.cpu0.commit.op_class_0::SimdMultAcc            0      0.00%     56.23% # Class of committed instruction
system.cpu0.commit.op_class_0::SimdShift            0      0.00%     56.23% # Class of committed instruction
system.cpu0.commit.op_class_0::SimdShiftAcc            0      0.00%     56.23% # Class of committed instruction
system.cpu0.commit.op_class_0::SimdDiv              0      0.00%     56.23% # Class of committed instruction
system.cpu0.commit.op_class_0::SimdSqrt             0      0.00%     56.23% # Class of committed instruction
system.cpu0.commit.op_class_0::SimdFloatAdd            0      0.00%     56.23% # Class of committed instruction
system.cpu0.commit.op_class_0::SimdFloatAlu            0      0.00%     56.23% # Class of committed instruction
system.cpu0.commit.op_class_0::SimdFloatCmp            0      0.00%     56.23% # Class of committed instruction
system.cpu0.commit.op_class_0::SimdFloatCvt            0      0.00%     56.23% # Class of committed instruction
system.cpu0.commit.op_class_0::SimdFloatDiv            0      0.00%     56.23% # Class of committed instruction
system.cpu0.commit.op_class_0::SimdFloatMisc            0      0.00%     56.23% # Class of committed instruction
system.cpu0.commit.op_class_0::SimdFloatMult            0      0.00%     56.23% # Class of committed instruction
system.cpu0.commit.op_class_0::SimdFloatMultAcc            0      0.00%     56.23% # Class of committed instruction
system.cpu0.commit.op_class_0::SimdFloatSqrt            0      0.00%     56.23% # Class of committed instruction
system.cpu0.commit.op_class_0::SimdReduceAdd            0      0.00%     56.23% # Class of committed instruction
system.cpu0.commit.op_class_0::SimdReduceAlu            0      0.00%     56.23% # Class of committed instruction
system.cpu0.commit.op_class_0::SimdReduceCmp            0      0.00%     56.23% # Class of committed instruction
system.cpu0.commit.op_class_0::SimdFloatReduceAdd            0      0.00%     56.23% # Class of committed instruction
system.cpu0.commit.op_class_0::SimdFloatReduceCmp            0      0.00%     56.23% # Class of committed instruction
system.cpu0.commit.op_class_0::SimdAes              0      0.00%     56.23% # Class of committed instruction
system.cpu0.commit.op_class_0::SimdAesMix            0      0.00%     56.23% # Class of committed instruction
system.cpu0.commit.op_class_0::SimdSha1Hash            0      0.00%     56.23% # Class of committed instruction
system.cpu0.commit.op_class_0::SimdSha1Hash2            0      0.00%     56.23% # Class of committed instruction
system.cpu0.commit.op_class_0::SimdSha256Hash            0      0.00%     56.23% # Class of committed instruction
system.cpu0.commit.op_class_0::SimdSha256Hash2            0      0.00%     56.23% # Class of committed instruction
system.cpu0.commit.op_class_0::SimdShaSigma2            0      0.00%     56.23% # Class of committed instruction
system.cpu0.commit.op_class_0::SimdShaSigma3            0      0.00%     56.23% # Class of committed instruction
system.cpu0.commit.op_class_0::SimdPredAlu            0      0.00%     56.23% # Class of committed instruction
system.cpu0.commit.op_class_0::MemRead      281234223     31.48%     87.71% # Class of committed instruction
system.cpu0.commit.op_class_0::MemWrite     109762587     12.29%    100.00% # Class of committed instruction
system.cpu0.commit.op_class_0::FloatMemRead           12      0.00%    100.00% # Class of committed instruction
system.cpu0.commit.op_class_0::FloatMemWrite           23      0.00%    100.00% # Class of committed instruction
system.cpu0.commit.op_class_0::IprAccess            0      0.00%    100.00% # Class of committed instruction
system.cpu0.commit.op_class_0::InstPrefetch            0      0.00%    100.00% # Class of committed instruction
system.cpu0.commit.op_class_0::total        893236510                       # Class of committed instruction
system.cpu0.commit.refs                     390996845                       # Number of memory references committed
system.cpu0.commit.swp_count                        0                       # Number of s/w prefetches committed
system.cpu0.commit.vec_insts                        0                       # Number of committed Vector instructions.
system.cpu0.committedInsts                  892414400                       # Number of Instructions Simulated
system.cpu0.committedOps                    893236510                       # Number of Ops (including micro ops) Simulated
system.cpu0.cpi                              1.910899                       # CPI: Cycles Per Instruction
system.cpu0.cpi_total                        1.910899                       # CPI: Total CPI of All Threads
system.cpu0.decode.BlockedCycles            192166195                       # Number of cycles decode is blocked
system.cpu0.decode.BranchMispred              6770896                       # Number of times decode detected a branch misprediction
system.cpu0.decode.BranchResolved           119622176                       # Number of times decode resolved a branch
system.cpu0.decode.DecodedInsts             978527752                       # Number of instructions handled by decode
system.cpu0.decode.IdleCycles               665934697                       # Number of cycles decode is idle
system.cpu0.decode.RunCycles                701872403                       # Number of cycles decode is running
system.cpu0.decode.SquashCycles               9841500                       # Number of cycles decode is squashing
system.cpu0.decode.SquashedInsts             12934431                       # Number of squashed instructions handled by decode
system.cpu0.decode.UnblockCycles              3478744                       # Number of cycles decode is unblocking
system.cpu0.dtb.accesses                            0                       # DTB accesses
system.cpu0.dtb.hits                                0                       # DTB hits
system.cpu0.dtb.misses                              0                       # DTB misses
system.cpu0.dtb.read_accesses                       0                       # DTB read accesses
system.cpu0.dtb.read_hits                           0                       # DTB read hits
system.cpu0.dtb.read_misses                         0                       # DTB read misses
system.cpu0.dtb.write_accesses                      0                       # DTB write accesses
system.cpu0.dtb.write_hits                          0                       # DTB write hits
system.cpu0.dtb.write_misses                        0                       # DTB write misses
system.cpu0.fetch.Branches                  239795130                       # Number of branches that fetch encountered
system.cpu0.fetch.CacheLines                179345659                       # Number of cache lines fetched
system.cpu0.fetch.Cycles                    903948300                       # Number of cycles fetch has run and was not squashing or blocked
system.cpu0.fetch.IcacheSquashes              4223431                       # Number of outstanding Icache misses that were squashed
system.cpu0.fetch.IcacheWaitRetryStallCycles          121                       # Number of stall cycles due to full MSHR
system.cpu0.fetch.Insts                    1005990258                       # Number of instructions fetch has processed
system.cpu0.fetch.MiscStallCycles                  64                       # Number of cycles fetch has spent waiting on interrupts, or bad addresses, or out of MSHRs
system.cpu0.fetch.PendingTrapStallCycles          181                       # Number of stall cycles due to pending traps
system.cpu0.fetch.SquashCycles               33214400                       # Number of cycles fetch has spent squashing
system.cpu0.fetch.branchRate                 0.140616                       # Number of branch fetches per cycle
system.cpu0.fetch.icacheStallCycles         652737673                       # Number of cycles fetch is stalled on an Icache miss
system.cpu0.fetch.predictedBranches         137255766                       # Number of branches that fetch has predicted taken
system.cpu0.fetch.rate                       0.589915                       # Number of inst fetches per cycle
system.cpu0.fetch.rateDist::samples        1573293539                       # Number of instructions fetched each cycle (Total)
system.cpu0.fetch.rateDist::mean             0.641534                       # Number of instructions fetched each cycle (Total)
system.cpu0.fetch.rateDist::stdev            0.883204                       # Number of instructions fetched each cycle (Total)
system.cpu0.fetch.rateDist::underflows              0      0.00%      0.00% # Number of instructions fetched each cycle (Total)
system.cpu0.fetch.rateDist::0               844526637     53.68%     53.68% # Number of instructions fetched each cycle (Total)
system.cpu0.fetch.rateDist::1               548549423     34.87%     88.55% # Number of instructions fetched each cycle (Total)
system.cpu0.fetch.rateDist::2               111121764      7.06%     95.61% # Number of instructions fetched each cycle (Total)
system.cpu0.fetch.rateDist::3                52072841      3.31%     98.92% # Number of instructions fetched each cycle (Total)
system.cpu0.fetch.rateDist::4                 7442877      0.47%     99.39% # Number of instructions fetched each cycle (Total)
system.cpu0.fetch.rateDist::5                 6641660      0.42%     99.81% # Number of instructions fetched each cycle (Total)
system.cpu0.fetch.rateDist::6                 1266613      0.08%     99.89% # Number of instructions fetched each cycle (Total)
system.cpu0.fetch.rateDist::7                 1643233      0.10%    100.00% # Number of instructions fetched each cycle (Total)
system.cpu0.fetch.rateDist::8                   28491      0.00%    100.00% # Number of instructions fetched each cycle (Total)
system.cpu0.fetch.rateDist::overflows               0      0.00%    100.00% # Number of instructions fetched each cycle (Total)
system.cpu0.fetch.rateDist::min_value               0                       # Number of instructions fetched each cycle (Total)
system.cpu0.fetch.rateDist::max_value               8                       # Number of instructions fetched each cycle (Total)
system.cpu0.fetch.rateDist::total          1573293539                       # Number of instructions fetched each cycle (Total)
system.cpu0.fp_regfile_reads                       56                       # number of floating regfile reads
system.cpu0.fp_regfile_writes                      33                       # number of floating regfile writes
system.cpu0.idleCycles                      132020210                       # Total number of cycles that the CPU has spent unscheduled due to idling
system.cpu0.iew.branchMispredicts             9873550                       # Number of branch mispredicts detected at execute
system.cpu0.iew.exec_branches               228850216                       # Number of branches executed
system.cpu0.iew.exec_nop                            0                       # number of nop insts executed
system.cpu0.iew.exec_rate                    0.546804                       # Inst execution rate
system.cpu0.iew.exec_refs                   413679024                       # number of memory reference insts executed
system.cpu0.iew.exec_stores                 113452952                       # Number of stores executed
system.cpu0.iew.exec_swp                            0                       # number of swp insts executed
system.cpu0.iew.iewBlockCycles              160553790                       # Number of cycles IEW is blocking
system.cpu0.iew.iewDispLoadInsts            305355959                       # Number of dispatched load instructions
system.cpu0.iew.iewDispNonSpecInsts           1971086                       # Number of dispatched non-speculative instructions
system.cpu0.iew.iewDispSquashedInsts          5295467                       # Number of squashed instructions skipped by dispatch
system.cpu0.iew.iewDispStoreInsts           117176867                       # Number of dispatched store instructions
system.cpu0.iew.iewDispatchedInsts          952990177                       # Number of instructions dispatched to IQ
system.cpu0.iew.iewExecLoadInsts            300226072                       # Number of load instructions executed
system.cpu0.iew.iewExecSquashedInsts          3534926                       # Number of squashed instructions skipped in execute
system.cpu0.iew.iewExecutedInsts            932472154                       # Number of executed instructions
system.cpu0.iew.iewIQFullEvents               1007668                       # Number of times the IQ has become full, causing a stall
system.cpu0.iew.iewIdleCycles                       0                       # Number of cycles IEW is idle
system.cpu0.iew.iewLSQFullEvents              2896543                       # Number of times the LSQ has become full, causing a stall
system.cpu0.iew.iewSquashCycles               9841500                       # Number of cycles IEW is squashing
system.cpu0.iew.iewUnblockCycles              4574183                       # Number of cycles IEW is unblocking
system.cpu0.iew.lsq.thread0.blockedLoads            0                       # Number of blocked loads due to partial load-store forwarding
system.cpu0.iew.lsq.thread0.cacheBlocked        68748                       # Number of times an access to memory failed due to the cache being blocked
system.cpu0.iew.lsq.thread0.forwLoads        18066147                       # Number of loads that had data forwarded from stores
system.cpu0.iew.lsq.thread0.ignoredResponses        11848                       # Number of memory responses ignored because the instruction is squashed
system.cpu0.iew.lsq.thread0.invAddrLoads            0                       # Number of loads ignored due to an invalid address
system.cpu0.iew.lsq.thread0.invAddrSwpfs            0                       # Number of software prefetches ignored due to an invalid address
system.cpu0.iew.lsq.thread0.memOrderViolation         9856                       # Number of memory ordering violations
system.cpu0.iew.lsq.thread0.rescheduledLoads      3648963                       # Number of loads that were rescheduled
system.cpu0.iew.lsq.thread0.squashedLoads     24941622                       # Number of loads squashed
system.cpu0.iew.lsq.thread0.squashedStores      6594359                       # Number of stores squashed
system.cpu0.iew.memOrderViolationEvents          9856                       # Number of memory order violations
system.cpu0.iew.predictedNotTakenIncorrect       871909                       # Number of branches that were predicted not taken incorrectly
system.cpu0.iew.predictedTakenIncorrect       9001641                       # Number of branches that were predicted taken incorrectly
system.cpu0.iew.wb_consumers                385357284                       # num instructions consuming a value
system.cpu0.iew.wb_count                    925990078                       # cumulative count of insts written-back
system.cpu0.iew.wb_fanout                    0.856673                       # average fanout of values written-back
system.cpu0.iew.wb_producers                330125126                       # num instructions producing a value
system.cpu0.iew.wb_rate                      0.543003                       # insts written-back per cycle
system.cpu0.iew.wb_sent                     926021777                       # cumulative count of insts sent to commit
system.cpu0.int_regfile_reads              1136521543                       # number of integer regfile reads
system.cpu0.int_regfile_writes              591298721                       # number of integer regfile writes
system.cpu0.ipc                              0.523314                       # IPC: Instructions Per Cycle
system.cpu0.ipc_total                        0.523314                       # IPC: Total IPC of All Threads
system.cpu0.iq.FU_type_0::No_OpClass          1643396      0.18%      0.18% # Type of FU issued
system.cpu0.iq.FU_type_0::IntAlu            509145259     54.40%     54.57% # Type of FU issued
system.cpu0.iq.FU_type_0::IntMult             7839629      0.84%     55.41% # Type of FU issued
system.cpu0.iq.FU_type_0::IntDiv              1639156      0.18%     55.58% # Type of FU issued
system.cpu0.iq.FU_type_0::FloatAdd                  0      0.00%     55.58% # Type of FU issued
system.cpu0.iq.FU_type_0::FloatCmp                  6      0.00%     55.58% # Type of FU issued
system.cpu0.iq.FU_type_0::FloatCvt                 16      0.00%     55.58% # Type of FU issued
system.cpu0.iq.FU_type_0::FloatMult                 0      0.00%     55.58% # Type of FU issued
system.cpu0.iq.FU_type_0::FloatMultAcc              0      0.00%     55.58% # Type of FU issued
system.cpu0.iq.FU_type_0::FloatDiv                  2      0.00%     55.58% # Type of FU issued
system.cpu0.iq.FU_type_0::FloatMisc                 6      0.00%     55.58% # Type of FU issued
system.cpu0.iq.FU_type_0::FloatSqrt                 0      0.00%     55.58% # Type of FU issued
system.cpu0.iq.FU_type_0::SimdAdd                   0      0.00%     55.58% # Type of FU issued
system.cpu0.iq.FU_type_0::SimdAddAcc                0      0.00%     55.58% # Type of FU issued
system.cpu0.iq.FU_type_0::SimdAlu                   0      0.00%     55.58% # Type of FU issued
system.cpu0.iq.FU_type_0::SimdCmp                   0      0.00%     55.58% # Type of FU issued
system.cpu0.iq.FU_type_0::SimdCvt                   0      0.00%     55.58% # Type of FU issued
system.cpu0.iq.FU_type_0::SimdMisc                  0      0.00%     55.58% # Type of FU issued
system.cpu0.iq.FU_type_0::SimdMult                  0      0.00%     55.58% # Type of FU issued
system.cpu0.iq.FU_type_0::SimdMultAcc               0      0.00%     55.58% # Type of FU issued
system.cpu0.iq.FU_type_0::SimdShift                 0      0.00%     55.58% # Type of FU issued
system.cpu0.iq.FU_type_0::SimdShiftAcc              0      0.00%     55.58% # Type of FU issued
system.cpu0.iq.FU_type_0::SimdDiv                   0      0.00%     55.58% # Type of FU issued
system.cpu0.iq.FU_type_0::SimdSqrt                  0      0.00%     55.58% # Type of FU issued
system.cpu0.iq.FU_type_0::SimdFloatAdd              0      0.00%     55.58% # Type of FU issued
system.cpu0.iq.FU_type_0::SimdFloatAlu              0      0.00%     55.58% # Type of FU issued
system.cpu0.iq.FU_type_0::SimdFloatCmp              0      0.00%     55.58% # Type of FU issued
system.cpu0.iq.FU_type_0::SimdFloatCvt              0      0.00%     55.58% # Type of FU issued
system.cpu0.iq.FU_type_0::SimdFloatDiv              0      0.00%     55.58% # Type of FU issued
system.cpu0.iq.FU_type_0::SimdFloatMisc             0      0.00%     55.58% # Type of FU issued
system.cpu0.iq.FU_type_0::SimdFloatMult             0      0.00%     55.58% # Type of FU issued
system.cpu0.iq.FU_type_0::SimdFloatMultAcc            0      0.00%     55.58% # Type of FU issued
system.cpu0.iq.FU_type_0::SimdFloatSqrt             0      0.00%     55.58% # Type of FU issued
system.cpu0.iq.FU_type_0::SimdReduceAdd             0      0.00%     55.58% # Type of FU issued
system.cpu0.iq.FU_type_0::SimdReduceAlu             0      0.00%     55.58% # Type of FU issued
system.cpu0.iq.FU_type_0::SimdReduceCmp             0      0.00%     55.58% # Type of FU issued
system.cpu0.iq.FU_type_0::SimdFloatReduceAdd            0      0.00%     55.58% # Type of FU issued
system.cpu0.iq.FU_type_0::SimdFloatReduceCmp            0      0.00%     55.58% # Type of FU issued
system.cpu0.iq.FU_type_0::SimdAes                   0      0.00%     55.58% # Type of FU issued
system.cpu0.iq.FU_type_0::SimdAesMix                0      0.00%     55.58% # Type of FU issued
system.cpu0.iq.FU_type_0::SimdSha1Hash              0      0.00%     55.58% # Type of FU issued
system.cpu0.iq.FU_type_0::SimdSha1Hash2             0      0.00%     55.58% # Type of FU issued
system.cpu0.iq.FU_type_0::SimdSha256Hash            0      0.00%     55.58% # Type of FU issued
system.cpu0.iq.FU_type_0::SimdSha256Hash2            0      0.00%     55.58% # Type of FU issued
system.cpu0.iq.FU_type_0::SimdShaSigma2             0      0.00%     55.58% # Type of FU issued
system.cpu0.iq.FU_type_0::SimdShaSigma3             0      0.00%     55.58% # Type of FU issued
system.cpu0.iq.FU_type_0::SimdPredAlu               0      0.00%     55.58% # Type of FU issued
system.cpu0.iq.FU_type_0::MemRead           302127484     32.28%     87.86% # Type of FU issued
system.cpu0.iq.FU_type_0::MemWrite          113612090     12.14%    100.00% # Type of FU issued
system.cpu0.iq.FU_type_0::FloatMemRead             14      0.00%    100.00% # Type of FU issued
system.cpu0.iq.FU_type_0::FloatMemWrite            23      0.00%    100.00% # Type of FU issued
system.cpu0.iq.FU_type_0::IprAccess                 0      0.00%    100.00% # Type of FU issued
system.cpu0.iq.FU_type_0::InstPrefetch              0      0.00%    100.00% # Type of FU issued
system.cpu0.iq.FU_type_0::total             936007081                       # Type of FU issued
system.cpu0.iq.fp_alu_accesses                     70                       # Number of floating point alu accesses
system.cpu0.iq.fp_inst_queue_reads                137                       # Number of floating instruction queue reads
system.cpu0.iq.fp_inst_queue_wakeup_accesses           67                       # Number of floating instruction queue wakeup accesses
system.cpu0.iq.fp_inst_queue_writes                69                       # Number of floating instruction queue writes
system.cpu0.iq.fu_busy_cnt                     999449                       # FU busy when requested
system.cpu0.iq.fu_busy_rate                  0.001068                       # FU busy rate (busy events/executed inst)
system.cpu0.iq.fu_full::No_OpClass                  0      0.00%      0.00% # attempts to use FU when none available
system.cpu0.iq.fu_full::IntAlu                 173459     17.36%     17.36% # attempts to use FU when none available
system.cpu0.iq.fu_full::IntMult                     0      0.00%     17.36% # attempts to use FU when none available
system.cpu0.iq.fu_full::IntDiv                      0      0.00%     17.36% # attempts to use FU when none available
system.cpu0.iq.fu_full::FloatAdd                    0      0.00%     17.36% # attempts to use FU when none available
system.cpu0.iq.fu_full::FloatCmp                    0      0.00%     17.36% # attempts to use FU when none available
system.cpu0.iq.fu_full::FloatCvt                    0      0.00%     17.36% # attempts to use FU when none available
system.cpu0.iq.fu_full::FloatMult                   0      0.00%     17.36% # attempts to use FU when none available
system.cpu0.iq.fu_full::FloatMultAcc                0      0.00%     17.36% # attempts to use FU when none available
system.cpu0.iq.fu_full::FloatDiv                    0      0.00%     17.36% # attempts to use FU when none available
system.cpu0.iq.fu_full::FloatMisc                   0      0.00%     17.36% # attempts to use FU when none available
system.cpu0.iq.fu_full::FloatSqrt                   0      0.00%     17.36% # attempts to use FU when none available
system.cpu0.iq.fu_full::SimdAdd                     0      0.00%     17.36% # attempts to use FU when none available
system.cpu0.iq.fu_full::SimdAddAcc                  0      0.00%     17.36% # attempts to use FU when none available
system.cpu0.iq.fu_full::SimdAlu                     0      0.00%     17.36% # attempts to use FU when none available
system.cpu0.iq.fu_full::SimdCmp                     0      0.00%     17.36% # attempts to use FU when none available
system.cpu0.iq.fu_full::SimdCvt                     0      0.00%     17.36% # attempts to use FU when none available
system.cpu0.iq.fu_full::SimdMisc                    0      0.00%     17.36% # attempts to use FU when none available
system.cpu0.iq.fu_full::SimdMult                    0      0.00%     17.36% # attempts to use FU when none available
system.cpu0.iq.fu_full::SimdMultAcc                 0      0.00%     17.36% # attempts to use FU when none available
system.cpu0.iq.fu_full::SimdShift                   0      0.00%     17.36% # attempts to use FU when none available
system.cpu0.iq.fu_full::SimdShiftAcc                0      0.00%     17.36% # attempts to use FU when none available
system.cpu0.iq.fu_full::SimdDiv                     0      0.00%     17.36% # attempts to use FU when none available
system.cpu0.iq.fu_full::SimdSqrt                    0      0.00%     17.36% # attempts to use FU when none available
system.cpu0.iq.fu_full::SimdFloatAdd                0      0.00%     17.36% # attempts to use FU when none available
system.cpu0.iq.fu_full::SimdFloatAlu                0      0.00%     17.36% # attempts to use FU when none available
system.cpu0.iq.fu_full::SimdFloatCmp                0      0.00%     17.36% # attempts to use FU when none available
system.cpu0.iq.fu_full::SimdFloatCvt                0      0.00%     17.36% # attempts to use FU when none available
system.cpu0.iq.fu_full::SimdFloatDiv                0      0.00%     17.36% # attempts to use FU when none available
system.cpu0.iq.fu_full::SimdFloatMisc               0      0.00%     17.36% # attempts to use FU when none available
system.cpu0.iq.fu_full::SimdFloatMult               0      0.00%     17.36% # attempts to use FU when none available
system.cpu0.iq.fu_full::SimdFloatMultAcc            0      0.00%     17.36% # attempts to use FU when none available
system.cpu0.iq.fu_full::SimdFloatSqrt               0      0.00%     17.36% # attempts to use FU when none available
system.cpu0.iq.fu_full::SimdReduceAdd               0      0.00%     17.36% # attempts to use FU when none available
system.cpu0.iq.fu_full::SimdReduceAlu               0      0.00%     17.36% # attempts to use FU when none available
system.cpu0.iq.fu_full::SimdReduceCmp               0      0.00%     17.36% # attempts to use FU when none available
system.cpu0.iq.fu_full::SimdFloatReduceAdd            0      0.00%     17.36% # attempts to use FU when none available
system.cpu0.iq.fu_full::SimdFloatReduceCmp            0      0.00%     17.36% # attempts to use FU when none available
system.cpu0.iq.fu_full::SimdAes                     0      0.00%     17.36% # attempts to use FU when none available
system.cpu0.iq.fu_full::SimdAesMix                  0      0.00%     17.36% # attempts to use FU when none available
system.cpu0.iq.fu_full::SimdSha1Hash                0      0.00%     17.36% # attempts to use FU when none available
system.cpu0.iq.fu_full::SimdSha1Hash2               0      0.00%     17.36% # attempts to use FU when none available
system.cpu0.iq.fu_full::SimdSha256Hash              0      0.00%     17.36% # attempts to use FU when none available
system.cpu0.iq.fu_full::SimdSha256Hash2             0      0.00%     17.36% # attempts to use FU when none available
system.cpu0.iq.fu_full::SimdShaSigma2               0      0.00%     17.36% # attempts to use FU when none available
system.cpu0.iq.fu_full::SimdShaSigma3               0      0.00%     17.36% # attempts to use FU when none available
system.cpu0.iq.fu_full::SimdPredAlu                 0      0.00%     17.36% # attempts to use FU when none available
system.cpu0.iq.fu_full::MemRead                713986     71.44%     88.79% # attempts to use FU when none available
system.cpu0.iq.fu_full::MemWrite               112001     11.21%    100.00% # attempts to use FU when none available
system.cpu0.iq.fu_full::FloatMemRead                0      0.00%    100.00% # attempts to use FU when none available
system.cpu0.iq.fu_full::FloatMemWrite               3      0.00%    100.00% # attempts to use FU when none available
system.cpu0.iq.fu_full::IprAccess                   0      0.00%    100.00% # attempts to use FU when none available
system.cpu0.iq.fu_full::InstPrefetch                0      0.00%    100.00% # attempts to use FU when none available
system.cpu0.iq.int_alu_accesses             935363064                       # Number of integer alu accesses
system.cpu0.iq.int_inst_queue_reads        3446367045                       # Number of integer instruction queue reads
system.cpu0.iq.int_inst_queue_wakeup_accesses    925990011                       # Number of integer instruction queue wakeup accesses
system.cpu0.iq.int_inst_queue_writes       1012752556                       # Number of integer instruction queue writes
system.cpu0.iq.iqInstsAdded                 947100331                       # Number of instructions added to the IQ (excludes non-spec)
system.cpu0.iq.iqInstsIssued                936007081                       # Number of instructions issued
system.cpu0.iq.iqNonSpecInstsAdded            5889846                       # Number of non-speculative instructions added to the IQ
system.cpu0.iq.iqSquashedInstsExamined       59753663                       # Number of squashed instructions iterated over during squash; mainly for profiling
system.cpu0.iq.iqSquashedInstsIssued            60033                       # Number of squashed instructions issued
system.cpu0.iq.iqSquashedNonSpecRemoved       3423598                       # Number of squashed non-spec instructions that were removed
system.cpu0.iq.iqSquashedOperandsExamined     28379240                       # Number of squashed operands that are examined and possibly removed from graph
system.cpu0.iq.issued_per_cycle::samples   1573293539                       # Number of insts issued each cycle
system.cpu0.iq.issued_per_cycle::mean        0.594935                       # Number of insts issued each cycle
system.cpu0.iq.issued_per_cycle::stdev       0.794038                       # Number of insts issued each cycle
system.cpu0.iq.issued_per_cycle::underflows            0      0.00%      0.00% # Number of insts issued each cycle
system.cpu0.iq.issued_per_cycle::0          879197432     55.88%     55.88% # Number of insts issued each cycle
system.cpu0.iq.issued_per_cycle::1          499181636     31.73%     87.61% # Number of insts issued each cycle
system.cpu0.iq.issued_per_cycle::2          160029768     10.17%     97.78% # Number of insts issued each cycle
system.cpu0.iq.issued_per_cycle::3           27092765      1.72%     99.50% # Number of insts issued each cycle
system.cpu0.iq.issued_per_cycle::4            4258585      0.27%     99.78% # Number of insts issued each cycle
system.cpu0.iq.issued_per_cycle::5            2973401      0.19%     99.96% # Number of insts issued each cycle
system.cpu0.iq.issued_per_cycle::6             386639      0.02%     99.99% # Number of insts issued each cycle
system.cpu0.iq.issued_per_cycle::7             120069      0.01%    100.00% # Number of insts issued each cycle
system.cpu0.iq.issued_per_cycle::8              53244      0.00%    100.00% # Number of insts issued each cycle
system.cpu0.iq.issued_per_cycle::overflows            0      0.00%    100.00% # Number of insts issued each cycle
system.cpu0.iq.issued_per_cycle::min_value            0                       # Number of insts issued each cycle
system.cpu0.iq.issued_per_cycle::max_value            8                       # Number of insts issued each cycle
system.cpu0.iq.issued_per_cycle::total     1573293539                       # Number of insts issued each cycle
system.cpu0.iq.rate                          0.548877                       # Inst issue rate
system.cpu0.iq.vec_alu_accesses                     0                       # Number of vector alu accesses
system.cpu0.iq.vec_inst_queue_reads                 0                       # Number of vector instruction queue reads
system.cpu0.iq.vec_inst_queue_wakeup_accesses            0                       # Number of vector instruction queue wakeup accesses
system.cpu0.iq.vec_inst_queue_writes                0                       # Number of vector instruction queue writes
system.cpu0.itb.accesses                            0                       # DTB accesses
system.cpu0.itb.hits                                0                       # DTB hits
system.cpu0.itb.misses                              0                       # DTB misses
system.cpu0.itb.read_accesses                       0                       # DTB read accesses
system.cpu0.itb.read_hits                           0                       # DTB read hits
system.cpu0.itb.read_misses                         0                       # DTB read misses
system.cpu0.itb.write_accesses                      0                       # DTB write accesses
system.cpu0.itb.write_hits                          0                       # DTB write hits
system.cpu0.itb.write_misses                        0                       # DTB write misses
system.cpu0.memDep0.conflictingLoads         15228396                       # Number of conflicting loads.
system.cpu0.memDep0.conflictingStores         2532182                       # Number of conflicting stores.
system.cpu0.memDep0.insertedLoads           305355959                       # Number of loads inserted to the mem dependence unit.
system.cpu0.memDep0.insertedStores          117176867                       # Number of stores inserted to the mem dependence unit.
system.cpu0.misc_regfile_reads                   1540                       # number of misc regfile reads
system.cpu0.misc_regfile_writes                    30                       # number of misc regfile writes
system.cpu0.numCycles                      1705313749                       # number of cpu cycles simulated
system.cpu0.numWorkItemsCompleted                   0                       # number of work items this cpu completed
system.cpu0.numWorkItemsStarted                     0                       # number of work items this cpu started
system.cpu0.quiesceCycles                    27867825                       # Total number of cycles that CPU has spent quiesced or waiting for an interrupt
system.cpu0.rename.BlockCycles              169232511                       # Number of cycles rename is blocking
system.cpu0.rename.CommittedMaps            569166545                       # Number of HB maps that are committed
system.cpu0.rename.IQFullEvents               3428826                       # Number of times rename has blocked due to IQ full
system.cpu0.rename.IdleCycles               678844296                       # Number of cycles rename is idle
system.cpu0.rename.LQFullEvents               7423038                       # Number of times rename has blocked due to LQ full
system.cpu0.rename.ROBFullEvents                 5375                       # Number of times rename has blocked due to ROB full
system.cpu0.rename.RenameLookups           1180358371                       # Number of register rename lookups that rename has made
system.cpu0.rename.RenamedInsts             969201162                       # Number of instructions processed by rename
system.cpu0.rename.RenamedOperands          622852746                       # Number of destination operands rename has renamed
system.cpu0.rename.RunCycles                691608788                       # Number of cycles rename is running
system.cpu0.rename.SQFullEvents              11907332                       # Number of times rename has blocked due to SQ full
system.cpu0.rename.SquashCycles               9841500                       # Number of cycles rename is squashing
system.cpu0.rename.UnblockCycles             23485164                       # Number of cycles rename is unblocking
system.cpu0.rename.UndoneMaps                53686196                       # Number of HB maps that are undone due to squashing
system.cpu0.rename.fp_rename_lookups               56                       # Number of floating rename lookups
system.cpu0.rename.int_rename_lookups      1180358315                       # Number of integer rename lookups
system.cpu0.rename.serializeStallCycles        281280                       # count of cycles rename stalled for serializing inst
system.cpu0.rename.serializingInsts              4674                       # count of serializing insts renamed
system.cpu0.rename.skidInsts                 10038697                       # count of insts added to the skid buffer
system.cpu0.rename.tempSerializingInsts          4673                       # count of temporary serializing insts renamed
system.cpu0.rob.rob_reads                  2482316619                       # The number of ROB reads
system.cpu0.rob.rob_writes                 1921167393                       # The number of ROB writes
system.cpu0.timesIdled                       20372474                       # Number of times that the entire CPU went into an idle state and unscheduled itself
system.cpu0.workload.numSyscalls                 1496                       # Number of system calls
system.cpu1.branchPred.BTBCorrect                   0                       # Number of correct BTB predictions (this stat may not work properly.
system.cpu1.branchPred.BTBHitPct            84.321371                       # BTB Hit Percentage
system.cpu1.branchPred.BTBHits               11205037                       # Number of BTB hits
system.cpu1.branchPred.BTBLookups            13288490                       # Number of BTB lookups
system.cpu1.branchPred.RASInCorrect                 0                       # Number of incorrect RAS predictions.
system.cpu1.branchPred.condIncorrect          2924702                       # Number of conditional branches incorrect
system.cpu1.branchPred.condPredicted         18123640                       # Number of conditional branches predicted
system.cpu1.branchPred.indirectHits            242578                       # Number of indirect target hits.
system.cpu1.branchPred.indirectLookups         346001                       # Number of indirect predictor lookups.
system.cpu1.branchPred.indirectMisses          103423                       # Number of indirect misses.
system.cpu1.branchPred.lookups               20564461                       # Number of BP lookups
system.cpu1.branchPred.usedRAS                      0                       # Number of times the RAS was used to get a target.
system.cpu1.branchPredindirectMispredicted        24103                       # Number of mispredicted indirect branches.
system.cpu1.commit.amos                        819632                       # Number of atomic instructions committed
system.cpu1.commit.branchMispredicts          2013949                       # The number of times a branch was mispredicted
system.cpu1.commit.branches                  10298759                       # Number of branches committed
system.cpu1.commit.bw_lim_events               765994                       # number cycles where commit BW limit reached
system.cpu1.commit.commitNonSpecStalls        2459601                       # The number of times commit has been forced to stall to communicate backwards
system.cpu1.commit.commitSquashedInsts       29972767                       # The number of squashed insts skipped by commit
system.cpu1.commit.committedInsts            41842302                       # Number of instructions committed
system.cpu1.commit.committedOps              42662134                       # Number of ops (including micro ops) committed
system.cpu1.commit.committed_per_cycle::samples    232868467                       # Number of insts commited each cycle
system.cpu1.commit.committed_per_cycle::mean     0.183203                       # Number of insts commited each cycle
system.cpu1.commit.committed_per_cycle::stdev     0.781994                       # Number of insts commited each cycle
system.cpu1.commit.committed_per_cycle::underflows            0      0.00%      0.00% # Number of insts commited each cycle
system.cpu1.commit.committed_per_cycle::0    213336365     91.61%     91.61% # Number of insts commited each cycle
system.cpu1.commit.committed_per_cycle::1      9764782      4.19%     95.81% # Number of insts commited each cycle
system.cpu1.commit.committed_per_cycle::2      3701125      1.59%     97.40% # Number of insts commited each cycle
system.cpu1.commit.committed_per_cycle::3      3371681      1.45%     98.84% # Number of insts commited each cycle
system.cpu1.commit.committed_per_cycle::4      1104258      0.47%     99.32% # Number of insts commited each cycle
system.cpu1.commit.committed_per_cycle::5       187514      0.08%     99.40% # Number of insts commited each cycle
system.cpu1.commit.committed_per_cycle::6       559731      0.24%     99.64% # Number of insts commited each cycle
system.cpu1.commit.committed_per_cycle::7        77017      0.03%     99.67% # Number of insts commited each cycle
system.cpu1.commit.committed_per_cycle::8       765994      0.33%    100.00% # Number of insts commited each cycle
system.cpu1.commit.committed_per_cycle::overflows            0      0.00%    100.00% # Number of insts commited each cycle
system.cpu1.commit.committed_per_cycle::min_value            0                       # Number of insts commited each cycle
system.cpu1.commit.committed_per_cycle::max_value            8                       # Number of insts commited each cycle
system.cpu1.commit.committed_per_cycle::total    232868467                       # Number of insts commited each cycle
system.cpu1.commit.fp_insts                        12                       # Number of committed floating point instructions.
system.cpu1.commit.function_calls              317207                       # Number of function calls committed.
system.cpu1.commit.int_insts                 40177547                       # Number of committed integer instructions.
system.cpu1.commit.loads                     11551956                       # Number of loads committed
system.cpu1.commit.membars                    1639360                       # Number of memory barriers committed
system.cpu1.commit.op_class_0::No_OpClass      1639360      3.84%      3.84% # Class of committed instruction
system.cpu1.commit.op_class_0::IntAlu        24986027     58.57%     62.41% # Class of committed instruction
system.cpu1.commit.op_class_0::IntMult             43      0.00%     62.41% # Class of committed instruction
system.cpu1.commit.op_class_0::IntDiv              86      0.00%     62.41% # Class of committed instruction
system.cpu1.commit.op_class_0::FloatAdd             0      0.00%     62.41% # Class of committed instruction
system.cpu1.commit.op_class_0::FloatCmp             0      0.00%     62.41% # Class of committed instruction
system.cpu1.commit.op_class_0::FloatCvt             0      0.00%     62.41% # Class of committed instruction
system.cpu1.commit.op_class_0::FloatMult            0      0.00%     62.41% # Class of committed instruction
system.cpu1.commit.op_class_0::FloatMultAcc            0      0.00%     62.41% # Class of committed instruction
system.cpu1.commit.op_class_0::FloatDiv             0      0.00%     62.41% # Class of committed instruction
system.cpu1.commit.op_class_0::FloatMisc            0      0.00%     62.41% # Class of committed instruction
system.cpu1.commit.op_class_0::FloatSqrt            0      0.00%     62.41% # Class of committed instruction
system.cpu1.commit.op_class_0::SimdAdd              0      0.00%     62.41% # Class of committed instruction
system.cpu1.commit.op_class_0::SimdAddAcc            0      0.00%     62.41% # Class of committed instruction
system.cpu1.commit.op_class_0::SimdAlu              0      0.00%     62.41% # Class of committed instruction
system.cpu1.commit.op_class_0::SimdCmp              0      0.00%     62.41% # Class of committed instruction
system.cpu1.commit.op_class_0::SimdCvt              0      0.00%     62.41% # Class of committed instruction
system.cpu1.commit.op_class_0::SimdMisc             0      0.00%     62.41% # Class of committed instruction
system.cpu1.commit.op_class_0::SimdMult             0      0.00%     62.41% # Class of committed instruction
system.cpu1.commit.op_class_0::SimdMultAcc            0      0.00%     62.41% # Class of committed instruction
system.cpu1.commit.op_class_0::SimdShift            0      0.00%     62.41% # Class of committed instruction
system.cpu1.commit.op_class_0::SimdShiftAcc            0      0.00%     62.41% # Class of committed instruction
system.cpu1.commit.op_class_0::SimdDiv              0      0.00%     62.41% # Class of committed instruction
system.cpu1.commit.op_class_0::SimdSqrt             0      0.00%     62.41% # Class of committed instruction
system.cpu1.commit.op_class_0::SimdFloatAdd            0      0.00%     62.41% # Class of committed instruction
system.cpu1.commit.op_class_0::SimdFloatAlu            0      0.00%     62.41% # Class of committed instruction
system.cpu1.commit.op_class_0::SimdFloatCmp            0      0.00%     62.41% # Class of committed instruction
system.cpu1.commit.op_class_0::SimdFloatCvt            0      0.00%     62.41% # Class of committed instruction
system.cpu1.commit.op_class_0::SimdFloatDiv            0      0.00%     62.41% # Class of committed instruction
system.cpu1.commit.op_class_0::SimdFloatMisc            0      0.00%     62.41% # Class of committed instruction
system.cpu1.commit.op_class_0::SimdFloatMult            0      0.00%     62.41% # Class of committed instruction
system.cpu1.commit.op_class_0::SimdFloatMultAcc            0      0.00%     62.41% # Class of committed instruction
system.cpu1.commit.op_class_0::SimdFloatSqrt            0      0.00%     62.41% # Class of committed instruction
system.cpu1.commit.op_class_0::SimdReduceAdd            0      0.00%     62.41% # Class of committed instruction
system.cpu1.commit.op_class_0::SimdReduceAlu            0      0.00%     62.41% # Class of committed instruction
system.cpu1.commit.op_class_0::SimdReduceCmp            0      0.00%     62.41% # Class of committed instruction
system.cpu1.commit.op_class_0::SimdFloatReduceAdd            0      0.00%     62.41% # Class of committed instruction
system.cpu1.commit.op_class_0::SimdFloatReduceCmp            0      0.00%     62.41% # Class of committed instruction
system.cpu1.commit.op_class_0::SimdAes              0      0.00%     62.41% # Class of committed instruction
system.cpu1.commit.op_class_0::SimdAesMix            0      0.00%     62.41% # Class of committed instruction
system.cpu1.commit.op_class_0::SimdSha1Hash            0      0.00%     62.41% # Class of committed instruction
system.cpu1.commit.op_class_0::SimdSha1Hash2            0      0.00%     62.41% # Class of committed instruction
system.cpu1.commit.op_class_0::SimdSha256Hash            0      0.00%     62.41% # Class of committed instruction
system.cpu1.commit.op_class_0::SimdSha256Hash2            0      0.00%     62.41% # Class of committed instruction
system.cpu1.commit.op_class_0::SimdShaSigma2            0      0.00%     62.41% # Class of committed instruction
system.cpu1.commit.op_class_0::SimdShaSigma3            0      0.00%     62.41% # Class of committed instruction
system.cpu1.commit.op_class_0::SimdPredAlu            0      0.00%     62.41% # Class of committed instruction
system.cpu1.commit.op_class_0::MemRead       12371588     29.00%     91.41% # Class of committed instruction
system.cpu1.commit.op_class_0::MemWrite       3665018      8.59%    100.00% # Class of committed instruction
system.cpu1.commit.op_class_0::FloatMemRead            0      0.00%    100.00% # Class of committed instruction
system.cpu1.commit.op_class_0::FloatMemWrite           12      0.00%    100.00% # Class of committed instruction
system.cpu1.commit.op_class_0::IprAccess            0      0.00%    100.00% # Class of committed instruction
system.cpu1.commit.op_class_0::InstPrefetch            0      0.00%    100.00% # Class of committed instruction
system.cpu1.commit.op_class_0::total         42662134                       # Class of committed instruction
system.cpu1.commit.refs                      16036618                       # Number of memory references committed
system.cpu1.commit.swp_count                        0                       # Number of s/w prefetches committed
system.cpu1.commit.vec_insts                        0                       # Number of committed Vector instructions.
system.cpu1.committedInsts                   41842302                       # Number of Instructions Simulated
system.cpu1.committedOps                     42662134                       # Number of Ops (including micro ops) Simulated
system.cpu1.cpi                              5.705089                       # CPI: Cycles Per Instruction
system.cpu1.cpi_total                        5.705089                       # CPI: Total CPI of All Threads
system.cpu1.decode.BlockedCycles            178395230                       # Number of cycles decode is blocked
system.cpu1.decode.BranchMispred               916657                       # Number of times decode detected a branch misprediction
system.cpu1.decode.BranchResolved            10027124                       # Number of times decode resolved a branch
system.cpu1.decode.DecodedInsts              82283253                       # Number of instructions handled by decode
system.cpu1.decode.IdleCycles                15602135                       # Number of cycles decode is idle
system.cpu1.decode.RunCycles                 39570206                       # Number of cycles decode is running
system.cpu1.decode.SquashCycles               2014974                       # Number of cycles decode is squashing
system.cpu1.decode.SquashedInsts              2186835                       # Number of squashed instructions handled by decode
system.cpu1.decode.UnblockCycles              2225941                       # Number of cycles decode is unblocking
system.cpu1.dtb.accesses                            0                       # DTB accesses
system.cpu1.dtb.hits                                0                       # DTB hits
system.cpu1.dtb.misses                              0                       # DTB misses
system.cpu1.dtb.read_accesses                       0                       # DTB read accesses
system.cpu1.dtb.read_hits                           0                       # DTB read hits
system.cpu1.dtb.read_misses                         0                       # DTB read misses
system.cpu1.dtb.write_accesses                      0                       # DTB write accesses
system.cpu1.dtb.write_hits                          0                       # DTB write hits
system.cpu1.dtb.write_misses                        0                       # DTB write misses
system.cpu1.fetch.Branches                   20564461                       # Number of branches that fetch encountered
system.cpu1.fetch.CacheLines                 11305913                       # Number of cache lines fetched
system.cpu1.fetch.Cycles                    221062596                       # Number of cycles fetch has run and was not squashing or blocked
system.cpu1.fetch.IcacheSquashes               565329                       # Number of outstanding Icache misses that were squashed
system.cpu1.fetch.IcacheWaitRetryStallCycles           13                       # Number of stall cycles due to full MSHR
system.cpu1.fetch.Insts                      94222345                       # Number of instructions fetch has processed
system.cpu1.fetch.MiscStallCycles                   2                       # Number of cycles fetch has spent waiting on interrupts, or bad addresses, or out of MSHRs
system.cpu1.fetch.SquashCycles                5851454                       # Number of cycles fetch has spent squashing
system.cpu1.fetch.branchRate                 0.086147                       # Number of branch fetches per cycle
system.cpu1.fetch.icacheStallCycles          13820148                       # Number of cycles fetch is stalled on an Icache miss
system.cpu1.fetch.predictedBranches          11447615                       # Number of branches that fetch has predicted taken
system.cpu1.fetch.rate                       0.394708                       # Number of inst fetches per cycle
system.cpu1.fetch.rateDist::samples         237808486                       # Number of instructions fetched each cycle (Total)
system.cpu1.fetch.rateDist::mean             0.409949                       # Number of instructions fetched each cycle (Total)
system.cpu1.fetch.rateDist::stdev            0.922586                       # Number of instructions fetched each cycle (Total)
system.cpu1.fetch.rateDist::underflows              0      0.00%      0.00% # Number of instructions fetched each cycle (Total)
system.cpu1.fetch.rateDist::0               181009891     76.12%     76.12% # Number of instructions fetched each cycle (Total)
system.cpu1.fetch.rateDist::1                33409375     14.05%     90.16% # Number of instructions fetched each cycle (Total)
system.cpu1.fetch.rateDist::2                14535669      6.11%     96.28% # Number of instructions fetched each cycle (Total)
system.cpu1.fetch.rateDist::3                 4888947      2.06%     98.33% # Number of instructions fetched each cycle (Total)
system.cpu1.fetch.rateDist::4                  917146      0.39%     98.72% # Number of instructions fetched each cycle (Total)
system.cpu1.fetch.rateDist::5                 1669294      0.70%     99.42% # Number of instructions fetched each cycle (Total)
system.cpu1.fetch.rateDist::6                 1347516      0.57%     99.99% # Number of instructions fetched each cycle (Total)
system.cpu1.fetch.rateDist::7                    3428      0.00%     99.99% # Number of instructions fetched each cycle (Total)
system.cpu1.fetch.rateDist::8                   27220      0.01%    100.00% # Number of instructions fetched each cycle (Total)
system.cpu1.fetch.rateDist::overflows               0      0.00%    100.00% # Number of instructions fetched each cycle (Total)
system.cpu1.fetch.rateDist::min_value               0                       # Number of instructions fetched each cycle (Total)
system.cpu1.fetch.rateDist::max_value               8                       # Number of instructions fetched each cycle (Total)
system.cpu1.fetch.rateDist::total           237808486                       # Number of instructions fetched each cycle (Total)
system.cpu1.fp_regfile_reads                       12                       # number of floating regfile reads
system.cpu1.idleCycles                         905558                       # Total number of cycles that the CPU has spent unscheduled due to idling
system.cpu1.iew.branchMispredicts             2056825                       # Number of branch mispredicts detected at execute
system.cpu1.iew.exec_branches                13350624                       # Number of branches executed
system.cpu1.iew.exec_nop                            0                       # number of nop insts executed
system.cpu1.iew.exec_rate                    0.219860                       # Inst execution rate
system.cpu1.iew.exec_refs                    18201901                       # number of memory reference insts executed
system.cpu1.iew.exec_stores                   5274829                       # Number of stores executed
system.cpu1.iew.exec_swp                            0                       # number of swp insts executed
system.cpu1.iew.iewBlockCycles              157818491                       # Number of cycles IEW is blocking
system.cpu1.iew.iewDispLoadInsts             19911396                       # Number of dispatched load instructions
system.cpu1.iew.iewDispNonSpecInsts           2039023                       # Number of dispatched non-speculative instructions
system.cpu1.iew.iewDispSquashedInsts          1697183                       # Number of squashed instructions skipped by dispatch
system.cpu1.iew.iewDispStoreInsts             8224657                       # Number of dispatched store instructions
system.cpu1.iew.iewDispatchedInsts           72626784                       # Number of instructions dispatched to IQ
system.cpu1.iew.iewExecLoadInsts             12927072                       # Number of load instructions executed
system.cpu1.iew.iewExecSquashedInsts          1628919                       # Number of squashed instructions skipped in execute
system.cpu1.iew.iewExecutedInsts             52483591                       # Number of executed instructions
system.cpu1.iew.iewIQFullEvents                956657                       # Number of times the IQ has become full, causing a stall
system.cpu1.iew.iewIdleCycles                       0                       # Number of cycles IEW is idle
system.cpu1.iew.iewLSQFullEvents               719355                       # Number of times the LSQ has become full, causing a stall
system.cpu1.iew.iewSquashCycles               2014974                       # Number of cycles IEW is squashing
system.cpu1.iew.iewUnblockCycles              2315840                       # Number of cycles IEW is unblocking
system.cpu1.iew.lsq.thread0.blockedLoads            0                       # Number of blocked loads due to partial load-store forwarding
system.cpu1.iew.lsq.thread0.cacheBlocked        38322                       # Number of times an access to memory failed due to the cache being blocked
system.cpu1.iew.lsq.thread0.forwLoads          225954                       # Number of loads that had data forwarded from stores
system.cpu1.iew.lsq.thread0.ignoredResponses        10675                       # Number of memory responses ignored because the instruction is squashed
system.cpu1.iew.lsq.thread0.invAddrLoads            0                       # Number of loads ignored due to an invalid address
system.cpu1.iew.lsq.thread0.invAddrSwpfs            0                       # Number of software prefetches ignored due to an invalid address
system.cpu1.iew.lsq.thread0.memOrderViolation         2286                       # Number of memory ordering violations
system.cpu1.iew.lsq.thread0.rescheduledLoads         2091                       # Number of loads that were rescheduled
system.cpu1.iew.lsq.thread0.squashedLoads      8359440                       # Number of loads squashed
system.cpu1.iew.lsq.thread0.squashedStores      3739995                       # Number of stores squashed
system.cpu1.iew.memOrderViolationEvents          2286                       # Number of memory order violations
system.cpu1.iew.predictedNotTakenIncorrect       635025                       # Number of branches that were predicted not taken incorrectly
system.cpu1.iew.predictedTakenIncorrect       1421800                       # Number of branches that were predicted taken incorrectly
system.cpu1.iew.wb_consumers                 26756068                       # num instructions consuming a value
system.cpu1.iew.wb_count                     51614474                       # cumulative count of insts written-back
system.cpu1.iew.wb_fanout                    0.785542                       # average fanout of values written-back
system.cpu1.iew.wb_producers                 21018018                       # num instructions producing a value
system.cpu1.iew.wb_rate                      0.216219                       # insts written-back per cycle
system.cpu1.iew.wb_sent                      51642162                       # cumulative count of insts sent to commit
system.cpu1.int_regfile_reads                67688478                       # number of integer regfile reads
system.cpu1.int_regfile_writes               32389996                       # number of integer regfile writes
system.cpu1.ipc                              0.175282                       # IPC: Instructions Per Cycle
system.cpu1.ipc_total                        0.175282                       # IPC: Total IPC of All Threads
system.cpu1.iq.FU_type_0::No_OpClass          1639562      3.03%      3.03% # Type of FU issued
system.cpu1.iq.FU_type_0::IntAlu             33771778     62.41%     65.44% # Type of FU issued
system.cpu1.iq.FU_type_0::IntMult                  52      0.00%     65.44% # Type of FU issued
system.cpu1.iq.FU_type_0::IntDiv                   86      0.00%     65.44% # Type of FU issued
system.cpu1.iq.FU_type_0::FloatAdd                  0      0.00%     65.44% # Type of FU issued
system.cpu1.iq.FU_type_0::FloatCmp                  0      0.00%     65.44% # Type of FU issued
system.cpu1.iq.FU_type_0::FloatCvt                  0      0.00%     65.44% # Type of FU issued
system.cpu1.iq.FU_type_0::FloatMult                 0      0.00%     65.44% # Type of FU issued
system.cpu1.iq.FU_type_0::FloatMultAcc              0      0.00%     65.44% # Type of FU issued
system.cpu1.iq.FU_type_0::FloatDiv                  0      0.00%     65.44% # Type of FU issued
system.cpu1.iq.FU_type_0::FloatMisc                 0      0.00%     65.44% # Type of FU issued
system.cpu1.iq.FU_type_0::FloatSqrt                 0      0.00%     65.44% # Type of FU issued
system.cpu1.iq.FU_type_0::SimdAdd                   0      0.00%     65.44% # Type of FU issued
system.cpu1.iq.FU_type_0::SimdAddAcc                0      0.00%     65.44% # Type of FU issued
system.cpu1.iq.FU_type_0::SimdAlu                   0      0.00%     65.44% # Type of FU issued
system.cpu1.iq.FU_type_0::SimdCmp                   0      0.00%     65.44% # Type of FU issued
system.cpu1.iq.FU_type_0::SimdCvt                   0      0.00%     65.44% # Type of FU issued
system.cpu1.iq.FU_type_0::SimdMisc                  0      0.00%     65.44% # Type of FU issued
system.cpu1.iq.FU_type_0::SimdMult                  0      0.00%     65.44% # Type of FU issued
system.cpu1.iq.FU_type_0::SimdMultAcc               0      0.00%     65.44% # Type of FU issued
system.cpu1.iq.FU_type_0::SimdShift                 0      0.00%     65.44% # Type of FU issued
system.cpu1.iq.FU_type_0::SimdShiftAcc              0      0.00%     65.44% # Type of FU issued
system.cpu1.iq.FU_type_0::SimdDiv                   0      0.00%     65.44% # Type of FU issued
system.cpu1.iq.FU_type_0::SimdSqrt                  0      0.00%     65.44% # Type of FU issued
system.cpu1.iq.FU_type_0::SimdFloatAdd              0      0.00%     65.44% # Type of FU issued
system.cpu1.iq.FU_type_0::SimdFloatAlu              0      0.00%     65.44% # Type of FU issued
system.cpu1.iq.FU_type_0::SimdFloatCmp              0      0.00%     65.44% # Type of FU issued
system.cpu1.iq.FU_type_0::SimdFloatCvt              0      0.00%     65.44% # Type of FU issued
system.cpu1.iq.FU_type_0::SimdFloatDiv              0      0.00%     65.44% # Type of FU issued
system.cpu1.iq.FU_type_0::SimdFloatMisc             0      0.00%     65.44% # Type of FU issued
system.cpu1.iq.FU_type_0::SimdFloatMult             0      0.00%     65.44% # Type of FU issued
system.cpu1.iq.FU_type_0::SimdFloatMultAcc            0      0.00%     65.44% # Type of FU issued
system.cpu1.iq.FU_type_0::SimdFloatSqrt             0      0.00%     65.44% # Type of FU issued
system.cpu1.iq.FU_type_0::SimdReduceAdd             0      0.00%     65.44% # Type of FU issued
system.cpu1.iq.FU_type_0::SimdReduceAlu             0      0.00%     65.44% # Type of FU issued
system.cpu1.iq.FU_type_0::SimdReduceCmp             0      0.00%     65.44% # Type of FU issued
system.cpu1.iq.FU_type_0::SimdFloatReduceAdd            0      0.00%     65.44% # Type of FU issued
system.cpu1.iq.FU_type_0::SimdFloatReduceCmp            0      0.00%     65.44% # Type of FU issued
system.cpu1.iq.FU_type_0::SimdAes                   0      0.00%     65.44% # Type of FU issued
system.cpu1.iq.FU_type_0::SimdAesMix                0      0.00%     65.44% # Type of FU issued
system.cpu1.iq.FU_type_0::SimdSha1Hash              0      0.00%     65.44% # Type of FU issued
system.cpu1.iq.FU_type_0::SimdSha1Hash2             0      0.00%     65.44% # Type of FU issued
system.cpu1.iq.FU_type_0::SimdSha256Hash            0      0.00%     65.44% # Type of FU issued
system.cpu1.iq.FU_type_0::SimdSha256Hash2            0      0.00%     65.44% # Type of FU issued
system.cpu1.iq.FU_type_0::SimdShaSigma2             0      0.00%     65.44% # Type of FU issued
system.cpu1.iq.FU_type_0::SimdShaSigma3             0      0.00%     65.44% # Type of FU issued
system.cpu1.iq.FU_type_0::SimdPredAlu               0      0.00%     65.44% # Type of FU issued
system.cpu1.iq.FU_type_0::MemRead            14101771     26.06%     91.50% # Type of FU issued
system.cpu1.iq.FU_type_0::MemWrite            4599249      8.50%    100.00% # Type of FU issued
system.cpu1.iq.FU_type_0::FloatMemRead              0      0.00%    100.00% # Type of FU issued
system.cpu1.iq.FU_type_0::FloatMemWrite            12      0.00%    100.00% # Type of FU issued
system.cpu1.iq.FU_type_0::IprAccess                 0      0.00%    100.00% # Type of FU issued
system.cpu1.iq.FU_type_0::InstPrefetch              0      0.00%    100.00% # Type of FU issued
system.cpu1.iq.FU_type_0::total              54112510                       # Type of FU issued
system.cpu1.iq.fp_alu_accesses                     15                       # Number of floating point alu accesses
system.cpu1.iq.fp_inst_queue_reads                 27                       # Number of floating instruction queue reads
system.cpu1.iq.fp_inst_queue_wakeup_accesses           12                       # Number of floating instruction queue wakeup accesses
system.cpu1.iq.fp_inst_queue_writes                12                       # Number of floating instruction queue writes
system.cpu1.iq.fu_busy_cnt                     929502                       # FU busy when requested
system.cpu1.iq.fu_busy_rate                  0.017177                       # FU busy rate (busy events/executed inst)
system.cpu1.iq.fu_full::No_OpClass                  0      0.00%      0.00% # attempts to use FU when none available
system.cpu1.iq.fu_full::IntAlu                 149273     16.06%     16.06% # attempts to use FU when none available
system.cpu1.iq.fu_full::IntMult                     0      0.00%     16.06% # attempts to use FU when none available
system.cpu1.iq.fu_full::IntDiv                      0      0.00%     16.06% # attempts to use FU when none available
system.cpu1.iq.fu_full::FloatAdd                    0      0.00%     16.06% # attempts to use FU when none available
system.cpu1.iq.fu_full::FloatCmp                    0      0.00%     16.06% # attempts to use FU when none available
system.cpu1.iq.fu_full::FloatCvt                    0      0.00%     16.06% # attempts to use FU when none available
system.cpu1.iq.fu_full::FloatMult                   0      0.00%     16.06% # attempts to use FU when none available
system.cpu1.iq.fu_full::FloatMultAcc                0      0.00%     16.06% # attempts to use FU when none available
system.cpu1.iq.fu_full::FloatDiv                    0      0.00%     16.06% # attempts to use FU when none available
system.cpu1.iq.fu_full::FloatMisc                   0      0.00%     16.06% # attempts to use FU when none available
system.cpu1.iq.fu_full::FloatSqrt                   0      0.00%     16.06% # attempts to use FU when none available
system.cpu1.iq.fu_full::SimdAdd                     0      0.00%     16.06% # attempts to use FU when none available
system.cpu1.iq.fu_full::SimdAddAcc                  0      0.00%     16.06% # attempts to use FU when none available
system.cpu1.iq.fu_full::SimdAlu                     0      0.00%     16.06% # attempts to use FU when none available
system.cpu1.iq.fu_full::SimdCmp                     0      0.00%     16.06% # attempts to use FU when none available
system.cpu1.iq.fu_full::SimdCvt                     0      0.00%     16.06% # attempts to use FU when none available
system.cpu1.iq.fu_full::SimdMisc                    0      0.00%     16.06% # attempts to use FU when none available
system.cpu1.iq.fu_full::SimdMult                    0      0.00%     16.06% # attempts to use FU when none available
system.cpu1.iq.fu_full::SimdMultAcc                 0      0.00%     16.06% # attempts to use FU when none available
system.cpu1.iq.fu_full::SimdShift                   0      0.00%     16.06% # attempts to use FU when none available
system.cpu1.iq.fu_full::SimdShiftAcc                0      0.00%     16.06% # attempts to use FU when none available
system.cpu1.iq.fu_full::SimdDiv                     0      0.00%     16.06% # attempts to use FU when none available
system.cpu1.iq.fu_full::SimdSqrt                    0      0.00%     16.06% # attempts to use FU when none available
system.cpu1.iq.fu_full::SimdFloatAdd                0      0.00%     16.06% # attempts to use FU when none available
system.cpu1.iq.fu_full::SimdFloatAlu                0      0.00%     16.06% # attempts to use FU when none available
system.cpu1.iq.fu_full::SimdFloatCmp                0      0.00%     16.06% # attempts to use FU when none available
system.cpu1.iq.fu_full::SimdFloatCvt                0      0.00%     16.06% # attempts to use FU when none available
system.cpu1.iq.fu_full::SimdFloatDiv                0      0.00%     16.06% # attempts to use FU when none available
system.cpu1.iq.fu_full::SimdFloatMisc               0      0.00%     16.06% # attempts to use FU when none available
system.cpu1.iq.fu_full::SimdFloatMult               0      0.00%     16.06% # attempts to use FU when none available
system.cpu1.iq.fu_full::SimdFloatMultAcc            0      0.00%     16.06% # attempts to use FU when none available
system.cpu1.iq.fu_full::SimdFloatSqrt               0      0.00%     16.06% # attempts to use FU when none available
system.cpu1.iq.fu_full::SimdReduceAdd               0      0.00%     16.06% # attempts to use FU when none available
system.cpu1.iq.fu_full::SimdReduceAlu               0      0.00%     16.06% # attempts to use FU when none available
system.cpu1.iq.fu_full::SimdReduceCmp               0      0.00%     16.06% # attempts to use FU when none available
system.cpu1.iq.fu_full::SimdFloatReduceAdd            0      0.00%     16.06% # attempts to use FU when none available
system.cpu1.iq.fu_full::SimdFloatReduceCmp            0      0.00%     16.06% # attempts to use FU when none available
system.cpu1.iq.fu_full::SimdAes                     0      0.00%     16.06% # attempts to use FU when none available
system.cpu1.iq.fu_full::SimdAesMix                  0      0.00%     16.06% # attempts to use FU when none available
system.cpu1.iq.fu_full::SimdSha1Hash                0      0.00%     16.06% # attempts to use FU when none available
system.cpu1.iq.fu_full::SimdSha1Hash2               0      0.00%     16.06% # attempts to use FU when none available
system.cpu1.iq.fu_full::SimdSha256Hash              0      0.00%     16.06% # attempts to use FU when none available
system.cpu1.iq.fu_full::SimdSha256Hash2             0      0.00%     16.06% # attempts to use FU when none available
system.cpu1.iq.fu_full::SimdShaSigma2               0      0.00%     16.06% # attempts to use FU when none available
system.cpu1.iq.fu_full::SimdShaSigma3               0      0.00%     16.06% # attempts to use FU when none available
system.cpu1.iq.fu_full::SimdPredAlu                 0      0.00%     16.06% # attempts to use FU when none available
system.cpu1.iq.fu_full::MemRead                679271     73.08%     89.14% # attempts to use FU when none available
[...]
system.cpu1.dcache.WriteReq_mshr_miss_latency::total  33587136073                       # number of WriteReq MSHR miss cycles
system.cpu1.dcache.WriteReq_mshr_miss_rate::.cpu1.data     0.067131                       # mshr miss rate for WriteReq accesses
system.cpu1.dcache.WriteReq_mshr_miss_rate::total     0.067131                       # mshr miss rate for WriteReq accesses
system.cpu1.dcache.WriteReq_avg_mshr_miss_latency::.cpu1.data 83399.472776                       # average WriteReq mshr miss latency
system.cpu1.dcache.WriteReq_avg_mshr_miss_latency::total 83399.472776                       # average WriteReq mshr miss latency
system.cpu1.dcache.LoadLockedReq_hits::.cpu1.data         4668                       # number of LoadLockedReq hits
system.cpu1.dcache.LoadLockedReq_hits::total         4668                       # number of LoadLockedReq hits
system.cpu1.dcache.LoadLockedReq_misses::.cpu1.data         1482                       # number of LoadLockedReq misses
system.cpu1.dcache.LoadLockedReq_misses::total         1482                       # number of LoadLockedReq misses
system.cpu1.dcache.LoadLockedReq_miss_latency::.cpu1.data     56451000                       # number of LoadLockedReq miss cycles
system.cpu1.dcache.LoadLockedReq_miss_latency::total     56451000                       # number of LoadLockedReq miss cycles
system.cpu1.dcache.LoadLockedReq_accesses::.cpu1.data         6150                       # number of LoadLockedReq accesses(hits+misses)
system.cpu1.dcache.LoadLockedReq_accesses::total         6150                       # number of LoadLockedReq accesses(hits+misses)
system.cpu1.dcache.LoadLockedReq_miss_rate::.cpu1.data     0.240976                       # miss rate for LoadLockedReq accesses
system.cpu1.dcache.LoadLockedReq_miss_rate::total     0.240976                       # miss rate for LoadLockedReq accesses
system.cpu1.dcache.LoadLockedReq_avg_miss_latency::.cpu1.data 38091.093117                       # average LoadLockedReq miss latency
system.cpu1.dcache.LoadLockedReq_avg_miss_latency::total 38091.093117                       # average LoadLockedReq miss latency
system.cpu1.dcache.LoadLockedReq_mshr_hits::.cpu1.data          284                       # number of LoadLockedReq MSHR hits
system.cpu1.dcache.LoadLockedReq_mshr_hits::total          284                       # number of LoadLockedReq MSHR hits
system.cpu1.dcache.LoadLockedReq_mshr_misses::.cpu1.data         1198                       # number of LoadLockedReq MSHR misses
system.cpu1.dcache.LoadLockedReq_mshr_misses::total         1198                       # number of LoadLockedReq MSHR misses
system.cpu1.dcache.LoadLockedReq_mshr_miss_latency::.cpu1.data     36556500                       # number of LoadLockedReq MSHR miss cycles
system.cpu1.dcache.LoadLockedReq_mshr_miss_latency::total     36556500                       # number of LoadLockedReq MSHR miss cycles
system.cpu1.dcache.LoadLockedReq_mshr_miss_rate::.cpu1.data     0.194797                       # mshr miss rate for LoadLockedReq accesses
system.cpu1.dcache.LoadLockedReq_mshr_miss_rate::total     0.194797                       # mshr miss rate for LoadLockedReq accesses
system.cpu1.dcache.LoadLockedReq_avg_mshr_miss_latency::.cpu1.data 30514.607679                       # average LoadLockedReq mshr miss latency
system.cpu1.dcache.LoadLockedReq_avg_mshr_miss_latency::total 30514.607679                       # average LoadLockedReq mshr miss latency
system.cpu1.dcache.StoreCondReq_hits::.cpu1.data         2446                       # number of StoreCondReq hits
system.cpu1.dcache.StoreCondReq_hits::total         2446                       # number of StoreCondReq hits
system.cpu1.dcache.StoreCondReq_misses::.cpu1.data         1951                       # number of StoreCondReq misses
system.cpu1.dcache.StoreCondReq_misses::total         1951                       # number of StoreCondReq misses
system.cpu1.dcache.StoreCondReq_miss_latency::.cpu1.data     14740500                       # number of StoreCondReq miss cycles
system.cpu1.dcache.StoreCondReq_miss_latency::total     14740500                       # number of StoreCondReq miss cycles
system.cpu1.dcache.StoreCondReq_accesses::.cpu1.data         4397                       # number of StoreCondReq accesses(hits+misses)
system.cpu1.dcache.StoreCondReq_accesses::total         4397                       # number of StoreCondReq accesses(hits+misses)
system.cpu1.dcache.StoreCondReq_miss_rate::.cpu1.data     0.443712                       # miss rate for StoreCondReq accesses
system.cpu1.dcache.StoreCondReq_miss_rate::total     0.443712                       # miss rate for StoreCondReq accesses
system.cpu1.dcache.StoreCondReq_avg_miss_latency::.cpu1.data  7555.356228                       # average StoreCondReq miss latency
system.cpu1.dcache.StoreCondReq_avg_miss_latency::total  7555.356228                       # average StoreCondReq miss latency
system.cpu1.dcache.StoreCondReq_mshr_misses::.cpu1.data         1904                       # number of StoreCondReq MSHR misses
system.cpu1.dcache.StoreCondReq_mshr_misses::total         1904                       # number of StoreCondReq MSHR misses
system.cpu1.dcache.StoreCondReq_mshr_miss_latency::.cpu1.data     13087500                       # number of StoreCondReq MSHR miss cycles
system.cpu1.dcache.StoreCondReq_mshr_miss_latency::total     13087500                       # number of StoreCondReq MSHR miss cycles
system.cpu1.dcache.StoreCondReq_mshr_miss_rate::.cpu1.data     0.433023                       # mshr miss rate for StoreCondReq accesses
system.cpu1.dcache.StoreCondReq_mshr_miss_rate::total     0.433023                       # mshr miss rate for StoreCondReq accesses
system.cpu1.dcache.StoreCondReq_avg_mshr_miss_latency::.cpu1.data  6873.686975                       # average StoreCondReq mshr miss latency
system.cpu1.dcache.StoreCondReq_avg_mshr_miss_latency::total  6873.686975                       # average StoreCondReq mshr miss latency
system.cpu1.dcache.StoreCondFailReq_miss_latency::.cpu1.data      2744500                       # number of StoreCondFailReq miss cycles
system.cpu1.dcache.StoreCondFailReq_miss_latency::total      2744500                       # number of StoreCondFailReq miss cycles
system.cpu1.dcache.StoreCondFailReq_avg_miss_latency::.cpu1.data          inf                       # average StoreCondFailReq miss latency
system.cpu1.dcache.StoreCondFailReq_avg_miss_latency::total          inf                       # average StoreCondFailReq miss latency
system.cpu1.dcache.StoreCondFailReq_mshr_miss_latency::.cpu1.data      2493500                       # number of StoreCondFailReq MSHR miss cycles
system.cpu1.dcache.StoreCondFailReq_mshr_miss_latency::total      2493500                       # number of StoreCondFailReq MSHR miss cycles
system.cpu1.dcache.StoreCondFailReq_avg_mshr_miss_latency::.cpu1.data          inf                       # average StoreCondFailReq mshr miss latency
system.cpu1.dcache.StoreCondFailReq_avg_mshr_miss_latency::total          inf                       # average StoreCondFailReq mshr miss latency
system.cpu1.dcache.SwapReq_hits::.cpu1.data         1965                       # number of SwapReq hits
system.cpu1.dcache.SwapReq_hits::total           1965                       # number of SwapReq hits
system.cpu1.dcache.SwapReq_misses::.cpu1.data        46839                       # number of SwapReq misses
system.cpu1.dcache.SwapReq_misses::total        46839                       # number of SwapReq misses
system.cpu1.dcache.SwapReq_miss_latency::.cpu1.data   2033736000                       # number of SwapReq miss cycles
system.cpu1.dcache.SwapReq_miss_latency::total   2033736000                       # number of SwapReq miss cycles
system.cpu1.dcache.SwapReq_accesses::.cpu1.data        48804                       # number of SwapReq accesses(hits+misses)
system.cpu1.dcache.SwapReq_accesses::total        48804                       # number of SwapReq accesses(hits+misses)
system.cpu1.dcache.SwapReq_miss_rate::.cpu1.data     0.959737                       # miss rate for SwapReq accesses
system.cpu1.dcache.SwapReq_miss_rate::total     0.959737                       # miss rate for SwapReq accesses
system.cpu1.dcache.SwapReq_avg_miss_latency::.cpu1.data 43419.714341                       # average SwapReq miss latency
system.cpu1.dcache.SwapReq_avg_miss_latency::total 43419.714341                       # average SwapReq miss latency
system.cpu1.dcache.SwapReq_mshr_misses::.cpu1.data        46839                       # number of SwapReq MSHR misses
system.cpu1.dcache.SwapReq_mshr_misses::total        46839                       # number of SwapReq MSHR misses
system.cpu1.dcache.SwapReq_mshr_miss_latency::.cpu1.data   1986897000                       # number of SwapReq MSHR miss cycles
system.cpu1.dcache.SwapReq_mshr_miss_latency::total   1986897000                       # number of SwapReq MSHR miss cycles
system.cpu1.dcache.SwapReq_mshr_miss_rate::.cpu1.data     0.959737                       # mshr miss rate for SwapReq accesses
system.cpu1.dcache.SwapReq_mshr_miss_rate::total     0.959737                       # mshr miss rate for SwapReq accesses
system.cpu1.dcache.SwapReq_avg_mshr_miss_latency::.cpu1.data 42419.714341                       # average SwapReq mshr miss latency
system.cpu1.dcache.SwapReq_avg_mshr_miss_latency::total 42419.714341                       # average SwapReq mshr miss latency
system.cpu1.dcache.tags.pwrStateResidencyTicks::UNDEFINED 1515105444500                       # Cumulative time (in ticks) in various power states
system.cpu1.dcache.tags.tagsinuse           31.960693                       # Cycle average of tags in use
system.cpu1.dcache.tags.total_refs           99428456                       # Total number of references to valid blocks.
system.cpu1.dcache.tags.sampled_refs         51479213                       # Sample count of references to valid blocks.
system.cpu1.dcache.tags.avg_refs             1.931429                       # Average number of references to valid blocks.
system.cpu1.dcache.tags.warmup_cycle                0                       # Cycle when the warmup percentage was hit.
system.cpu1.dcache.tags.occ_blocks::.cpu1.data    31.960693                       # Average occupied blocks per requestor
system.cpu1.dcache.tags.occ_percent::.cpu1.data     0.998772                       # Average percentage of cache occupancy
system.cpu1.dcache.tags.occ_percent::total     0.998772                       # Average percentage of cache occupancy
system.cpu1.dcache.tags.occ_task_id_blocks::1024           24                       # Occupied blocks per task id
system.cpu1.dcache.tags.age_task_id_blocks_1024::1            1                       # Occupied blocks per task id
system.cpu1.dcache.tags.age_task_id_blocks_1024::2           23                       # Occupied blocks per task id
system.cpu1.dcache.tags.occ_task_id_percent::1024     0.750000                       # Percentage of cache occupancy per task id
system.cpu1.dcache.tags.tag_accesses        295280787                       # Number of tag accesses
system.cpu1.dcache.tags.data_accesses       295280787                       # Number of data accesses
system.cpu_clk_domain.clock                       500                       # Clock period in ticks
system.tol2bus.pwrStateResidencyTicks::UNDEFINED 1515105444500                       # Cumulative time (in ticks) in various power states
system.tol2bus.trans_dist::ReadResp         204295414                       # Transaction distribution
system.tol2bus.trans_dist::ReadRespWithInvalidate            9                       # Transaction distribution
system.tol2bus.trans_dist::WritebackDirty      7255401                       # Transaction distribution
system.tol2bus.trans_dist::WritebackClean    201878348                       # Transaction distribution
system.tol2bus.trans_dist::CleanEvict       374913045                       # Transaction distribution
system.tol2bus.trans_dist::UpgradeReq           33097                       # Transaction distribution
system.tol2bus.trans_dist::SCUpgradeReq          7497                       # Transaction distribution
system.tol2bus.trans_dist::UpgradeResp          40594                       # Transaction distribution
system.tol2bus.trans_dist::SCUpgradeFailReq          693                       # Transaction distribution
system.tol2bus.trans_dist::UpgradeFailResp          693                       # Transaction distribution
system.tol2bus.trans_dist::ReadExReq          1799724                       # Transaction distribution
system.tol2bus.trans_dist::ReadExResp         1799724                       # Transaction distribution
system.tol2bus.trans_dist::ReadCleanReq        183651                       # Transaction distribution
system.tol2bus.trans_dist::ReadSharedReq    204111773                       # Transaction distribution
system.tol2bus.trans_dist::InvalidateReq          143                       # Transaction distribution
system.tol2bus.trans_dist::InvalidateResp          143                       # Transaction distribution
system.tol2bus.pkt_count_system.cpu0.icache.mem_side::system.l2.cpu_side       331786                       # Packet count per connected master and slave (bytes)
system.tol2bus.pkt_count_system.cpu0.dcache.mem_side::system.l2.cpu_side    154558526                       # Packet count per connected master and slave (bytes)
system.tol2bus.pkt_count_system.cpu1.icache.mem_side::system.l2.cpu_side        73482                       # Packet count per connected master and slave (bytes)
system.tol2bus.pkt_count_system.cpu1.dcache.mem_side::system.l2.cpu_side    154404645                       # Packet count per connected master and slave (bytes)
system.tol2bus.pkt_count_system.cpu2.icache.mem_side::system.l2.cpu_side        74136                       # Packet count per connected master and slave (bytes)
system.tol2bus.pkt_count_system.cpu2.dcache.mem_side::system.l2.cpu_side    154314865                       # Packet count per connected master and slave (bytes)
system.tol2bus.pkt_count_system.cpu3.icache.mem_side::system.l2.cpu_side        71541                       # Packet count per connected master and slave (bytes)
system.tol2bus.pkt_count_system.cpu3.dcache.mem_side::system.l2.cpu_side    154327715                       # Packet count per connected master and slave (bytes)
system.tol2bus.pkt_count::total             618156696                       # Packet count per connected master and slave (bytes)
system.tol2bus.pkt_size_system.cpu0.icache.mem_side::system.l2.cpu_side     14156032                       # Cumulative packet size per connected master and slave (bytes)
system.tol2bus.pkt_size_system.cpu0.dcache.mem_side::system.l2.cpu_side   6592986880                       # Cumulative packet size per connected master and slave (bytes)
system.tol2bus.pkt_size_system.cpu1.icache.mem_side::system.l2.cpu_side      3135232                       # Cumulative packet size per connected master and slave (bytes)
system.tol2bus.pkt_size_system.cpu1.dcache.mem_side::system.l2.cpu_side   6586402816                       # Cumulative packet size per connected master and slave (bytes)
system.tol2bus.pkt_size_system.cpu2.icache.mem_side::system.l2.cpu_side      3163136                       # Cumulative packet size per connected master and slave (bytes)
system.tol2bus.pkt_size_system.cpu2.dcache.mem_side::system.l2.cpu_side   6582533952                       # Cumulative packet size per connected master and slave (bytes)
system.tol2bus.pkt_size_system.cpu3.icache.mem_side::system.l2.cpu_side      3052416                       # Cumulative packet size per connected master and slave (bytes)
system.tol2bus.pkt_size_system.cpu3.dcache.mem_side::system.l2.cpu_side   6583040000                       # Cumulative packet size per connected master and slave (bytes)
system.tol2bus.pkt_size::total            26368470464                       # Cumulative packet size per connected master and slave (bytes)
system.tol2bus.snoops                       378163253                       # Total snoops (count)
system.tol2bus.snoopTraffic                 206223232                       # Total snoop traffic (bytes)
system.tol2bus.snoop_fanout::samples        608742595                       # Request fanout histogram
system.tol2bus.snoop_fanout::mean            0.355921                       # Request fanout histogram
system.tol2bus.snoop_fanout::stdev           0.526470                       # Request fanout histogram
system.tol2bus.snoop_fanout::underflows             0      0.00%      0.00% # Request fanout histogram
system.tol2bus.snoop_fanout::0              404376300     66.43%     66.43% # Request fanout histogram
system.tol2bus.snoop_fanout::1              194079143     31.88%     98.31% # Request fanout histogram
system.tol2bus.snoop_fanout::2                8556417      1.41%     99.72% # Request fanout histogram
system.tol2bus.snoop_fanout::3                1450818      0.24%     99.95% # Request fanout histogram
system.tol2bus.snoop_fanout::4                 279917      0.05%    100.00% # Request fanout histogram
system.tol2bus.snoop_fanout::5                      0      0.00%    100.00% # Request fanout histogram
system.tol2bus.snoop_fanout::6                      0      0.00%    100.00% # Request fanout histogram
system.tol2bus.snoop_fanout::7                      0      0.00%    100.00% # Request fanout histogram
system.tol2bus.snoop_fanout::8                      0      0.00%    100.00% # Request fanout histogram
system.tol2bus.snoop_fanout::overflows              0      0.00%    100.00% # Request fanout histogram
system.tol2bus.snoop_fanout::min_value              0                       # Request fanout histogram
system.tol2bus.snoop_fanout::max_value              4                       # Request fanout histogram
system.tol2bus.snoop_fanout::total          608742595                       # Request fanout histogram
system.tol2bus.reqLayer0.occupancy       444538677493                       # Layer occupancy (ticks)
system.tol2bus.reqLayer0.utilization             29.3                       # Layer utilization (%)
system.tol2bus.respLayer5.occupancy       77367432344                       # Layer occupancy (ticks)
system.tol2bus.respLayer5.utilization             5.1                       # Layer utilization (%)
system.tol2bus.respLayer4.occupancy          38330207                       # Layer occupancy (ticks)
system.tol2bus.respLayer4.utilization             0.0                       # Layer utilization (%)
system.tol2bus.respLayer7.occupancy       77373728040                       # Layer occupancy (ticks)
system.tol2bus.respLayer7.utilization             5.1                       # Layer utilization (%)
system.tol2bus.respLayer6.occupancy          37134562                       # Layer occupancy (ticks)
system.tol2bus.respLayer6.utilization             0.0                       # Layer utilization (%)
system.tol2bus.respLayer1.occupancy       77488380109                       # Layer occupancy (ticks)
system.tol2bus.respLayer1.utilization             5.1                       # Layer utilization (%)
system.tol2bus.respLayer0.occupancy         166246693                       # Layer occupancy (ticks)
system.tol2bus.respLayer0.utilization             0.0                       # Layer utilization (%)
system.tol2bus.respLayer3.occupancy       77412040087                       # Layer occupancy (ticks)
system.tol2bus.respLayer3.utilization             5.1                       # Layer utilization (%)
system.tol2bus.respLayer2.occupancy          38318486                       # Layer occupancy (ticks)
system.tol2bus.respLayer2.utilization             0.0                       # Layer utilization (%)

---------- End Simulation Statistics   ----------
