
---------- Begin Simulation Statistics ----------
final_tick                               493388952500                       # Number of ticks from beginning of simulation (restored from checkpoints and never reset)
host_inst_rate                                  99975                       # Simulator instruction rate (inst/s)
host_mem_usage                                 739332                       # Number of bytes of host memory used
host_op_rate                                   100307                       # Simulator op (including micro ops) rate (op/s)
host_seconds                                  6135.70                       # Real time elapsed on the host
host_tick_rate                               80412844                       # Simulator tick rate (ticks/s)
sim_freq                                 1000000000000                       # Frequency of simulated ticks
sim_insts                                   613416058                       # Number of instructions simulated
sim_ops                                     615454840                       # Number of ops (including micro ops) simulated
sim_seconds                                  0.493389                       # Number of seconds simulated
sim_ticks                                493388952500                       # Number of ticks simulated
system.cpu0.branchPred.BTBCorrect                   0                       # Number of correct BTB predictions (this stat may not work properly.
system.cpu0.branchPred.BTBHitPct            86.608601                       # BTB Hit Percentage
system.cpu0.branchPred.BTBHits               77549487                       # Number of BTB hits
system.cpu0.branchPred.BTBLookups            89540168                       # Number of BTB lookups
system.cpu0.branchPred.RASInCorrect                 0                       # Number of incorrect RAS predictions.
system.cpu0.branchPred.condIncorrect          8566488                       # Number of conditional branches incorrect
system.cpu0.branchPred.condPredicted        119934424                       # Number of conditional branches predicted
system.cpu0.branchPred.indirectHits          11692427                       # Number of indirect target hits.
system.cpu0.branchPred.indirectLookups       11828835                       # Number of indirect predictor lookups.
system.cpu0.branchPred.indirectMisses          136408                       # Number of indirect misses.
system.cpu0.branchPred.lookups              155727067                       # Number of BP lookups
system.cpu0.branchPred.usedRAS                      0                       # Number of times the RAS was used to get a target.
system.cpu0.branchPredindirectMispredicted      1053011                       # Number of mispredicted indirect branches.
system.cpu0.commit.amos                        509396                       # Number of atomic instructions committed
system.cpu0.commit.branchMispredicts          5630605                       # The number of times a branch was mispredicted
system.cpu0.commit.branches                 138973009                       # Number of branches committed
system.cpu0.commit.bw_lim_events             17626139                       # number cycles where commit BW limit reached
system.cpu0.commit.commitNonSpecStalls        1532364                       # The number of times commit has been forced to stall to communicate backwards
system.cpu0.commit.commitSquashedInsts       55959319                       # The number of squashed insts skipped by commit
system.cpu0.commit.committedInsts           561802557                       # Number of instructions committed
system.cpu0.commit.committedOps             562313226                       # Number of ops (including micro ops) committed
system.cpu0.commit.committed_per_cycle::samples    896021867                       # Number of insts commited each cycle
system.cpu0.commit.committed_per_cycle::mean     0.627566                       # Number of insts commited each cycle
system.cpu0.commit.committed_per_cycle::stdev     1.428808                       # Number of insts commited each cycle
system.cpu0.commit.committed_per_cycle::underflows            0      0.00%      0.00% # Number of insts commited each cycle
system.cpu0.commit.committed_per_cycle::0    633273367     70.68%     70.68% # Number of insts commited each cycle
system.cpu0.commit.committed_per_cycle::1    155566502     17.36%     88.04% # Number of insts commited each cycle
system.cpu0.commit.committed_per_cycle::2     35523228      3.96%     92.00% # Number of insts commited each cycle
system.cpu0.commit.committed_per_cycle::3     34650298      3.87%     95.87% # Number of insts commited each cycle
system.cpu0.commit.committed_per_cycle::4     11684581      1.30%     97.17% # Number of insts commited each cycle
system.cpu0.commit.committed_per_cycle::5      4425811      0.49%     97.67% # Number of insts commited each cycle
system.cpu0.commit.committed_per_cycle::6      1030704      0.12%     97.78% # Number of insts commited each cycle
system.cpu0.commit.committed_per_cycle::7      2241237      0.25%     98.03% # Number of insts commited each cycle
system.cpu0.commit.committed_per_cycle::8     17626139      1.97%    100.00% # Number of insts commited each cycle
system.cpu0.commit.committed_per_cycle::overflows            0      0.00%    100.00% # Number of insts commited each cycle
system.cpu0.commit.committed_per_cycle::min_value            0                       # Number of insts commited each cycle
system.cpu0.commit.committed_per_cycle::max_value            8                       # Number of insts commited each cycle
system.cpu0.commit.committed_per_cycle::total    896021867                       # Number of insts commited each cycle
system.cpu0.commit.fp_insts                        50                       # Number of committed floating point instructions.
system.cpu0.commit.function_calls            11672087                       # Number of function calls committed.
system.cpu0.commit.int_insts                543445378                       # Number of committed integer instructions.
system.cpu0.commit.loads                    174758252                       # Number of loads committed
system.cpu0.commit.membars                    1019954                       # Number of memory barriers committed
system.cpu0.commit.op_class_0::No_OpClass      1019960      0.18%      0.18% # Class of committed instruction
system.cpu0.commit.op_class_0::IntAlu       311055227     55.32%     55.50% # Class of committed instruction
system.cpu0.commit.op_class_0::IntMult        4137156      0.74%     56.23% # Class of committed instruction
system.cpu0.commit.op_class_0::IntDiv         1017773      0.18%     56.42% # Class of committed instruction
system.cpu0.commit.op_class_0::FloatAdd             0      0.00%     56.42% # Class of committed instruction
system.cpu0.commit.op_class_0::FloatCmp             4      0.00%     56.42% # Class of committed instruction
system.cpu0.commit.op_class_0::FloatCvt            12      0.00%     56.42% # Class of committed instruction
system.cpu0.commit.op_class_0::FloatMult            0      0.00%     56.42% # Class of committed instruction
system.cpu0.commit.op_class_0::FloatMultAcc            0      0.00%     56.42% # Class of committed instruction
system.cpu0.commit.op_class_0::FloatDiv             2      0.00%     56.42% # Class of committed instruction
system.cpu0.commit.op_class_0::FloatMisc            4      0.00%     56.42% # Class of committed instruction
system.cpu0.commit.op_class_0::FloatSqrt            0      0.00%     56.42% # Class of committed instruction
system.cpu0.commit.op_class_0::SimdAdd              0      0.00%     56.42% # Class of committed instruction
system.cpu0.commit.op_class_0::SimdAddAcc            0      0.00%     56.42% # Class of committed instruction
system.cpu0.commit.op_class_0::SimdAlu              0      0.00%     56.42% # Class of committed instruction
system.cpu0.commit.op_class_0::SimdCmp              0      0.00%     56.42% # Class of committed instruction
system.cpu0.commit.op_class_0::SimdCvt              0      0.00%     56.42% # Class of committed instruction
system.cpu0.commit.op_class_0::SimdMisc             0      0.00%     56.42% # Class of committed instruction
system.cpu0.commit.op_class_0::SimdMult             0      0.00%     56.42% # Class of committed instruction
system.cpu0.commit.op_class_0::SimdMultAcc            0      0.00%     56.42% # Class of committed instruction
system.cpu0.commit.op_class_0::SimdShift            0      0.00%     56.42% # Class of committed instruction
system.cpu0.commit.op_class_0::SimdShiftAcc            0      0.00%     56.42% # Class of committed instruction
system.cpu0.commit.op_class_0::SimdDiv              0      0.00%     56.42% # Class of committed instruction
system.cpu0.commit.op_class_0::SimdSqrt             0      0.00%     56.42% # Class of committed instruction
system.cpu0.commit.op_class_0::SimdFloatAdd            0      0.00%     56.42% # Class of committed instruction
system.cpu0.commit.op_class_0::SimdFloatAlu            0      0.00%     56.42% # Class of committed instruction
system.cpu0.commit.op_class_0::SimdFloatCmp            0      0.00%     56.42% # Class of committed instruction
system.cpu0.commit.op_class_0::SimdFloatCvt            0      0.00%     56.42% # Class of committed instruction
system.cpu0.commit.op_class_0::SimdFloatDiv            0      0.00%     56.42% # Class of committed instruction
system.cpu0.commit.op_class_0::SimdFloatMisc            0      0.00%     56.42% # Class of committed instruction
system.cpu0.commit.op_class_0::SimdFloatMult            0      0.00%     56.42% # Class of committed instruction
system.cpu0.commit.op_class_0::SimdFloatMultAcc            0      0.00%     56.42% # Class of committed instruction
system.cpu0.commit.op_class_0::SimdFloatSqrt            0      0.00%     56.42% # Class of committed instruction
system.cpu0.commit.op_class_0::SimdReduceAdd            0      0.00%     56.42% # Class of committed instruction
system.cpu0.commit.op_class_0::SimdReduceAlu            0      0.00%     56.42% # Class of committed instruction
system.cpu0.commit.op_class_0::SimdReduceCmp            0      0.00%     56.42% # Class of committed instruction
system.cpu0.commit.op_class_0::SimdFloatReduceAdd            0      0.00%     56.42% # Class of committed instruction
system.cpu0.commit.op_class_0::SimdFloatReduceCmp            0      0.00%     56.42% # Class of committed instruction
system.cpu0.commit.op_class_0::SimdAes              0      0.00%     56.42% # Class of committed instruction
system.cpu0.commit.op_class_0::SimdAesMix            0      0.00%     56.42% # Class of committed instruction
system.cpu0.commit.op_class_0::SimdSha1Hash            0      0.00%     56.42% # Class of committed instruction
system.cpu0.commit.op_class_0::SimdSha1Hash2            0      0.00%     56.42% # Class of committed instruction
system.cpu0.commit.op_class_0::SimdSha256Hash            0      0.00%     56.42% # Class of committed instruction
system.cpu0.commit.op_class_0::SimdSha256Hash2            0      0.00%     56.42% # Class of committed instruction
system.cpu0.commit.op_class_0::SimdShaSigma2            0      0.00%     56.42% # Class of committed instruction
system.cpu0.commit.op_class_0::SimdShaSigma3            0      0.00%     56.42% # Class of committed instruction
system.cpu0.commit.op_class_0::SimdPredAlu            0      0.00%     56.42% # Class of committed instruction
system.cpu0.commit.op_class_0::MemRead      175267640     31.17%     87.58% # Class of committed instruction
system.cpu0.commit.op_class_0::MemWrite      69815420     12.42%    100.00% # Class of committed instruction
system.cpu0.commit.op_class_0::FloatMemRead            8      0.00%    100.00% # Class of committed instruction
system.cpu0.commit.op_class_0::FloatMemWrite           20      0.00%    100.00% # Class of committed instruction
system.cpu0.commit.op_class_0::IprAccess            0      0.00%    100.00% # Class of committed instruction
system.cpu0.commit.op_class_0::InstPrefetch            0      0.00%    100.00% # Class of committed instruction
system.cpu0.commit.op_class_0::total        562313226                       # Class of committed instruction
system.cpu0.commit.refs                     245083088                       # Number of memory references committed
system.cpu0.commit.swp_count                        0                       # Number of s/w prefetches committed
system.cpu0.commit.vec_insts                        0                       # Number of committed Vector instructions.
system.cpu0.committedInsts                  561802557                       # Number of Instructions Simulated
system.cpu0.committedOps                    562313226                       # Number of Ops (including micro ops) Simulated
system.cpu0.cpi                              1.734011                       # CPI: Cycles Per Instruction
system.cpu0.cpi_total                        1.734011                       # CPI: Total CPI of All Threads
system.cpu0.decode.BlockedCycles            114881808                       # Number of cycles decode is blocked
system.cpu0.decode.BranchMispred              2940586                       # Number of times decode detected a branch misprediction
system.cpu0.decode.BranchResolved            75866489                       # Number of times decode resolved a branch
system.cpu0.decode.DecodedInsts             630898595                       # Number of instructions handled by decode
system.cpu0.decode.IdleCycles               347733385                       # Number of cycles decode is idle
system.cpu0.decode.RunCycles                435930733                       # Number of cycles decode is running
system.cpu0.decode.SquashCycles               5635675                       # Number of cycles decode is squashing
system.cpu0.decode.SquashedInsts              9612434                       # Number of squashed instructions handled by decode
system.cpu0.decode.UnblockCycles              2672696                       # Number of cycles decode is unblocking
system.cpu0.dtb.accesses                            0                       # DTB accesses
system.cpu0.dtb.hits                                0                       # DTB hits
system.cpu0.dtb.misses                              0                       # DTB misses
system.cpu0.dtb.read_accesses                       0                       # DTB read accesses
system.cpu0.dtb.read_hits                           0                       # DTB read hits
system.cpu0.dtb.read_misses                         0                       # DTB read misses
system.cpu0.dtb.write_accesses                      0                       # DTB write accesses
system.cpu0.dtb.write_hits                          0                       # DTB write hits
system.cpu0.dtb.write_misses                        0                       # DTB write misses
system.cpu0.fetch.Branches                  155727067                       # Number of branches that fetch encountered
system.cpu0.fetch.CacheLines                102475398                       # Number of cache lines fetched
system.cpu0.fetch.Cycles                    558716500                       # Number of cycles fetch has run and was not squashing or blocked
system.cpu0.fetch.IcacheSquashes              2921524                       # Number of outstanding Icache misses that were squashed
system.cpu0.fetch.IcacheWaitRetryStallCycles          111                       # Number of stall cycles due to full MSHR
system.cpu0.fetch.Insts                     650582183                       # Number of instructions fetch has processed
system.cpu0.fetch.MiscStallCycles                  26                       # Number of cycles fetch has spent waiting on interrupts, or bad addresses, or out of MSHRs
system.cpu0.fetch.PendingTrapStallCycles          100                       # Number of stall cycles due to pending traps
system.cpu0.fetch.SquashCycles               17143146                       # Number of cycles fetch has spent squashing
system.cpu0.fetch.branchRate                 0.159856                       # Number of branch fetches per cycle
system.cpu0.fetch.icacheStallCycles         339565987                       # Number of cycles fetch is stalled on an Icache miss
system.cpu0.fetch.predictedBranches          89241914                       # Number of branches that fetch has predicted taken
system.cpu0.fetch.rate                       0.667831                       # Number of inst fetches per cycle
system.cpu0.fetch.rateDist::samples         906854297                       # Number of instructions fetched each cycle (Total)
system.cpu0.fetch.rateDist::mean             0.717969                       # Number of instructions fetched each cycle (Total)
system.cpu0.fetch.rateDist::stdev            0.934578                       # Number of instructions fetched each cycle (Total)
system.cpu0.fetch.rateDist::underflows              0      0.00%      0.00% # Number of instructions fetched each cycle (Total)
system.cpu0.fetch.rateDist::0               451099266     49.74%     49.74% # Number of instructions fetched each cycle (Total)
system.cpu0.fetch.rateDist::1               337263508     37.19%     86.93% # Number of instructions fetched each cycle (Total)
system.cpu0.fetch.rateDist::2                61286824      6.76%     93.69% # Number of instructions fetched each cycle (Total)
system.cpu0.fetch.rateDist::3                43690788      4.82%     98.51% # Number of instructions fetched each cycle (Total)
system.cpu0.fetch.rateDist::4                10593783      1.17%     99.68% # Number of instructions fetched each cycle (Total)
system.cpu0.fetch.rateDist::5                 1753863      0.19%     99.87% # Number of instructions fetched each cycle (Total)
system.cpu0.fetch.rateDist::6                  145162      0.02%     99.89% # Number of instructions fetched each cycle (Total)
system.cpu0.fetch.rateDist::7                     467      0.00%     99.89% # Number of instructions fetched each cycle (Total)
system.cpu0.fetch.rateDist::8                 1020636      0.11%    100.00% # Number of instructions fetched each cycle (Total)
system.cpu0.fetch.rateDist::overflows               0      0.00%    100.00% # Number of instructions fetched each cycle (Total)
system.cpu0.fetch.rateDist::min_value               0                       # Number of instructions fetched each cycle (Total)
system.cpu0.fetch.rateDist::max_value               8                       # Number of instructions fetched each cycle (Total)
system.cpu0.fetch.rateDist::total           906854297                       # Number of instructions fetched each cycle (Total)
system.cpu0.fp_regfile_reads                       44                       # number of floating regfile reads
system.cpu0.fp_regfile_writes                      23                       # number of floating regfile writes
system.cpu0.idleCycles                       67317260                       # Total number of cycles that the CPU has spent unscheduled due to idling
system.cpu0.iew.branchMispredicts             5745654                       # Number of branch mispredicts detected at execute
system.cpu0.iew.exec_branches               146595244                       # Number of branches executed
system.cpu0.iew.exec_nop                            0                       # number of nop insts executed
system.cpu0.iew.exec_rate                    0.629476                       # Inst execution rate
system.cpu0.iew.exec_refs                   276318905                       # number of memory reference insts executed
system.cpu0.iew.exec_stores                  77754712                       # Number of stores executed
system.cpu0.iew.exec_swp                            0                       # number of swp insts executed
system.cpu0.iew.iewBlockCycles               89998562                       # Number of cycles IEW is blocking
system.cpu0.iew.iewDispLoadInsts            197861209                       # Number of dispatched load instructions
system.cpu0.iew.iewDispNonSpecInsts            512672                       # Number of dispatched non-speculative instructions
system.cpu0.iew.iewDispSquashedInsts          2857165                       # Number of squashed instructions skipped by dispatch
system.cpu0.iew.iewDispStoreInsts            78823440                       # Number of dispatched store instructions
system.cpu0.iew.iewDispatchedInsts          618254951                       # Number of instructions dispatched to IQ
system.cpu0.iew.iewExecLoadInsts            198564193                       # Number of load instructions executed
system.cpu0.iew.iewExecSquashedInsts          3935364                       # Number of squashed instructions skipped in execute
system.cpu0.iew.iewExecutedInsts            613217503                       # Number of executed instructions
system.cpu0.iew.iewIQFullEvents                534238                       # Number of times the IQ has become full, causing a stall
system.cpu0.iew.iewIdleCycles                       0                       # Number of cycles IEW is idle
system.cpu0.iew.iewLSQFullEvents              2419944                       # Number of times the LSQ has become full, causing a stall
system.cpu0.iew.iewSquashCycles               5635675                       # Number of cycles IEW is squashing
system.cpu0.iew.iewUnblockCycles              3560728                       # Number of cycles IEW is unblocking
system.cpu0.iew.lsq.thread0.blockedLoads            0                       # Number of blocked loads due to partial load-store forwarding
system.cpu0.iew.lsq.thread0.cacheBlocked       136034                       # Number of times an access to memory failed due to the cache being blocked
system.cpu0.iew.lsq.thread0.forwLoads         9673075                       # Number of loads that had data forwarded from stores
system.cpu0.iew.lsq.thread0.ignoredResponses        32046                       # Number of memory responses ignored because the instruction is squashed
system.cpu0.iew.lsq.thread0.invAddrLoads            0                       # Number of loads ignored due to an invalid address
system.cpu0.iew.lsq.thread0.invAddrSwpfs            0                       # Number of software prefetches ignored due to an invalid address
system.cpu0.iew.lsq.thread0.memOrderViolation         5605                       # Number of memory ordering violations
system.cpu0.iew.lsq.thread0.rescheduledLoads      3541069                       # Number of loads that were rescheduled
system.cpu0.iew.lsq.thread0.squashedLoads     23102957                       # Number of loads squashed
system.cpu0.iew.lsq.thread0.squashedStores      8498604                       # Number of stores squashed
system.cpu0.iew.memOrderViolationEvents          5605                       # Number of memory order violations
system.cpu0.iew.predictedNotTakenIncorrect       830577                       # Number of branches that were predicted not taken incorrectly
system.cpu0.iew.predictedTakenIncorrect       4915077                       # Number of branches that were predicted taken incorrectly
system.cpu0.iew.wb_consumers                272905125                       # num instructions consuming a value
system.cpu0.iew.wb_count                    606181336                       # cumulative count of insts written-back
system.cpu0.iew.wb_fanout                    0.836195                       # average fanout of values written-back
system.cpu0.iew.wb_producers                228201827                       # num instructions producing a value
system.cpu0.iew.wb_rate                      0.622253                       # insts written-back per cycle
system.cpu0.iew.wb_sent                     606287003                       # cumulative count of insts sent to commit
system.cpu0.int_regfile_reads               746093188                       # number of integer regfile reads
system.cpu0.int_regfile_writes              387602050                       # number of integer regfile writes
system.cpu0.ipc                              0.576698                       # IPC: Instructions Per Cycle
system.cpu0.ipc_total                        0.576698                       # IPC: Total IPC of All Threads
system.cpu0.iq.FU_type_0::No_OpClass          1020985      0.17%      0.17% # Type of FU issued
system.cpu0.iq.FU_type_0::IntAlu            332915018     53.94%     54.11% # Type of FU issued
system.cpu0.iq.FU_type_0::IntMult             4213147      0.68%     54.79% # Type of FU issued
system.cpu0.iq.FU_type_0::IntDiv              1018063      0.16%     54.96% # Type of FU issued
system.cpu0.iq.FU_type_0::FloatAdd                  0      0.00%     54.96% # Type of FU issued
system.cpu0.iq.FU_type_0::FloatCmp                  4      0.00%     54.96% # Type of FU issued
system.cpu0.iq.FU_type_0::FloatCvt                 12      0.00%     54.96% # Type of FU issued
system.cpu0.iq.FU_type_0::FloatMult                 0      0.00%     54.96% # Type of FU issued
system.cpu0.iq.FU_type_0::FloatMultAcc              0      0.00%     54.96% # Type of FU issued
system.cpu0.iq.FU_type_0::FloatDiv                  2      0.00%     54.96% # Type of FU issued
system.cpu0.iq.FU_type_0::FloatMisc                 4      0.00%     54.96% # Type of FU issued
system.cpu0.iq.FU_type_0::FloatSqrt                 0      0.00%     54.96% # Type of FU issued
system.cpu0.iq.FU_type_0::SimdAdd                   0      0.00%     54.96% # Type of FU issued
system.cpu0.iq.FU_type_0::SimdAddAcc                0      0.00%     54.96% # Type of FU issued
system.cpu0.iq.FU_type_0::SimdAlu                   0      0.00%     54.96% # Type of FU issued
system.cpu0.iq.FU_type_0::SimdCmp                   0      0.00%     54.96% # Type of FU issued
system.cpu0.iq.FU_type_0::SimdCvt                   0      0.00%     54.96% # Type of FU issued
system.cpu0.iq.FU_type_0::SimdMisc                  0      0.00%     54.96% # Type of FU issued
system.cpu0.iq.FU_type_0::SimdMult                  0      0.00%     54.96% # Type of FU issued
system.cpu0.iq.FU_type_0::SimdMultAcc               0      0.00%     54.96% # Type of FU issued
system.cpu0.iq.FU_type_0::SimdShift                 0      0.00%     54.96% # Type of FU issued
system.cpu0.iq.FU_type_0::SimdShiftAcc              0      0.00%     54.96% # Type of FU issued
system.cpu0.iq.FU_type_0::SimdDiv                   0      0.00%     54.96% # Type of FU issued
system.cpu0.iq.FU_type_0::SimdSqrt                  0      0.00%     54.96% # Type of FU issued
system.cpu0.iq.FU_type_0::SimdFloatAdd              0      0.00%     54.96% # Type of FU issued
system.cpu0.iq.FU_type_0::SimdFloatAlu              0      0.00%     54.96% # Type of FU issued
system.cpu0.iq.FU_type_0::SimdFloatCmp              0      0.00%     54.96% # Type of FU issued
system.cpu0.iq.FU_type_0::SimdFloatCvt              0      0.00%     54.96% # Type of FU issued
system.cpu0.iq.FU_type_0::SimdFloatDiv              0      0.00%     54.96% # Type of FU issued
system.cpu0.iq.FU_type_0::SimdFloatMisc             0      0.00%     54.96% # Type of FU issued
system.cpu0.iq.FU_type_0::SimdFloatMult             0      0.00%     54.96% # Type of FU issued
system.cpu0.iq.FU_type_0::SimdFloatMultAcc            0      0.00%     54.96% # Type of FU issued
system.cpu0.iq.FU_type_0::SimdFloatSqrt             0      0.00%     54.96% # Type of FU issued
system.cpu0.iq.FU_type_0::SimdReduceAdd             0      0.00%     54.96% # Type of FU issued
system.cpu0.iq.FU_type_0::SimdReduceAlu             0      0.00%     54.96% # Type of FU issued
system.cpu0.iq.FU_type_0::SimdReduceCmp             0      0.00%     54.96% # Type of FU issued
system.cpu0.iq.FU_type_0::SimdFloatReduceAdd            0      0.00%     54.96% # Type of FU issued
system.cpu0.iq.FU_type_0::SimdFloatReduceCmp            0      0.00%     54.96% # Type of FU issued
system.cpu0.iq.FU_type_0::SimdAes                   0      0.00%     54.96% # Type of FU issued
system.cpu0.iq.FU_type_0::SimdAesMix                0      0.00%     54.96% # Type of FU issued
system.cpu0.iq.FU_type_0::SimdSha1Hash              0      0.00%     54.96% # Type of FU issued
system.cpu0.iq.FU_type_0::SimdSha1Hash2             0      0.00%     54.96% # Type of FU issued
system.cpu0.iq.FU_type_0::SimdSha256Hash            0      0.00%     54.96% # Type of FU issued
system.cpu0.iq.FU_type_0::SimdSha256Hash2            0      0.00%     54.96% # Type of FU issued
system.cpu0.iq.FU_type_0::SimdShaSigma2             0      0.00%     54.96% # Type of FU issued
system.cpu0.iq.FU_type_0::SimdShaSigma3             0      0.00%     54.96% # Type of FU issued
system.cpu0.iq.FU_type_0::SimdPredAlu               0      0.00%     54.96% # Type of FU issued
system.cpu0.iq.FU_type_0::MemRead           200348093     32.46%     87.42% # Type of FU issued
system.cpu0.iq.FU_type_0::MemWrite           77637510     12.58%    100.00% # Type of FU issued
system.cpu0.iq.FU_type_0::FloatMemRead              9      0.00%    100.00% # Type of FU issued
system.cpu0.iq.FU_type_0::FloatMemWrite            20      0.00%    100.00% # Type of FU issued
system.cpu0.iq.FU_type_0::IprAccess                 0      0.00%    100.00% # Type of FU issued
system.cpu0.iq.FU_type_0::InstPrefetch              0      0.00%    100.00% # Type of FU issued
system.cpu0.iq.FU_type_0::total             617152867                       # Type of FU issued
system.cpu0.iq.fp_alu_accesses                     55                       # Number of floating point alu accesses
system.cpu0.iq.fp_inst_queue_reads                106                       # Number of floating instruction queue reads
system.cpu0.iq.fp_inst_queue_wakeup_accesses           51                       # Number of floating instruction queue wakeup accesses
system.cpu0.iq.fp_inst_queue_writes                56                       # Number of floating instruction queue writes
system.cpu0.iq.fu_busy_cnt                     880384                       # FU busy when requested
system.cpu0.iq.fu_busy_rate                  0.001427                       # FU busy rate (busy events/executed inst)
system.cpu0.iq.fu_full::No_OpClass                  0      0.00%      0.00% # attempts to use FU when none available
system.cpu0.iq.fu_full::IntAlu                 169456     19.25%     19.25% # attempts to use FU when none available
system.cpu0.iq.fu_full::IntMult                    11      0.00%     19.25% # attempts to use FU when none available
system.cpu0.iq.fu_full::IntDiv                      0      0.00%     19.25% # attempts to use FU when none available
system.cpu0.iq.fu_full::FloatAdd                    0      0.00%     19.25% # attempts to use FU when none available
system.cpu0.iq.fu_full::FloatCmp                    0      0.00%     19.25% # attempts to use FU when none available
system.cpu0.iq.fu_full::FloatCvt                    0      0.00%     19.25% # attempts to use FU when none available
system.cpu0.iq.fu_full::FloatMult                   0      0.00%     19.25% # attempts to use FU when none available
system.cpu0.iq.fu_full::FloatMultAcc                0      0.00%     19.25% # attempts to use FU when none available
system.cpu0.iq.fu_full::FloatDiv                    0      0.00%     19.25% # attempts to use FU when none available
system.cpu0.iq.fu_full::FloatMisc                   0      0.00%     19.25% # attempts to use FU when none available
system.cpu0.iq.fu_full::FloatSqrt                   0      0.00%     19.25% # attempts to use FU when none available
system.cpu0.iq.fu_full::SimdAdd                     0      0.00%     19.25% # attempts to use FU when none available
system.cpu0.iq.fu_full::SimdAddAcc                  0      0.00%     19.25% # attempts to use FU when none available
system.cpu0.iq.fu_full::SimdAlu                     0      0.00%     19.25% # attempts to use FU when none available
system.cpu0.iq.fu_full::SimdCmp                     0      0.00%     19.25% # attempts to use FU when none available
system.cpu0.iq.fu_full::SimdCvt                     0      0.00%     19.25% # attempts to use FU when none available
system.cpu0.iq.fu_full::SimdMisc                    0      0.00%     19.25% # attempts to use FU when none available
system.cpu0.iq.fu_full::SimdMult                    0      0.00%     19.25% # attempts to use FU when none available
system.cpu0.iq.fu_full::SimdMultAcc                 0      0.00%     19.25% # attempts to use FU when none available
system.cpu0.iq.fu_full::SimdShift                   0      0.00%     19.25% # attempts to use FU when none available
system.cpu0.iq.fu_full::SimdShiftAcc                0      0.00%     19.25% # attempts to use FU when none available
system.cpu0.iq.fu_full::SimdDiv                     0      0.00%     19.25% # attempts to use FU when none available
system.cpu0.iq.fu_full::SimdSqrt                    0      0.00%     19.25% # attempts to use FU when none available
system.cpu0.iq.fu_full::SimdFloatAdd                0      0.00%     19.25% # attempts to use FU when none available
system.cpu0.iq.fu_full::SimdFloatAlu                0      0.00%     19.25% # attempts to use FU when none available
system.cpu0.iq.fu_full::SimdFloatCmp                0      0.00%     19.25% # attempts to use FU when none available
system.cpu0.iq.fu_full::SimdFloatCvt                0      0.00%     19.25% # attempts to use FU when none available
system.cpu0.iq.fu_full::SimdFloatDiv                0      0.00%     19.25% # attempts to use FU when none available
system.cpu0.iq.fu_full::SimdFloatMisc               0      0.00%     19.25% # attempts to use FU when none available
system.cpu0.iq.fu_full::SimdFloatMult               0      0.00%     19.25% # attempts to use FU when none available
system.cpu0.iq.fu_full::SimdFloatMultAcc            0      0.00%     19.25% # attempts to use FU when none available
system.cpu0.iq.fu_full::SimdFloatSqrt               0      0.00%     19.25% # attempts to use FU when none available
system.cpu0.iq.fu_full::SimdReduceAdd               0      0.00%     19.25% # attempts to use FU when none available
system.cpu0.iq.fu_full::SimdReduceAlu               0      0.00%     19.25% # attempts to use FU when none available
system.cpu0.iq.fu_full::SimdReduceCmp               0      0.00%     19.25% # attempts to use FU when none available
system.cpu0.iq.fu_full::SimdFloatReduceAdd            0      0.00%     19.25% # attempts to use FU when none available
system.cpu0.iq.fu_full::SimdFloatReduceCmp            0      0.00%     19.25% # attempts to use FU when none available
system.cpu0.iq.fu_full::SimdAes                     0      0.00%     19.25% # attempts to use FU when none available
system.cpu0.iq.fu_full::SimdAesMix                  0      0.00%     19.25% # attempts to use FU when none available
system.cpu0.iq.fu_full::SimdSha1Hash                0      0.00%     19.25% # attempts to use FU when none available
system.cpu0.iq.fu_full::SimdSha1Hash2               0      0.00%     19.25% # attempts to use FU when none available
system.cpu0.iq.fu_full::SimdSha256Hash              0      0.00%     19.25% # attempts to use FU when none available
system.cpu0.iq.fu_full::SimdSha256Hash2             0      0.00%     19.25% # attempts to use FU when none available
system.cpu0.iq.fu_full::SimdShaSigma2               0      0.00%     19.25% # attempts to use FU when none available
system.cpu0.iq.fu_full::SimdShaSigma3               0      0.00%     19.25% # attempts to use FU when none available
system.cpu0.iq.fu_full::SimdPredAlu                 0      0.00%     19.25% # attempts to use FU when none available
system.cpu0.iq.fu_full::MemRead                609233     69.20%     88.45% # attempts to use FU when none available
system.cpu0.iq.fu_full::MemWrite               101680     11.55%    100.00% # attempts to use FU when none available
system.cpu0.iq.fu_full::FloatMemRead                0      0.00%    100.00% # attempts to use FU when none available
system.cpu0.iq.fu_full::FloatMemWrite               4      0.00%    100.00% # attempts to use FU when none available
system.cpu0.iq.fu_full::IprAccess                   0      0.00%    100.00% # attempts to use FU when none available
system.cpu0.iq.fu_full::InstPrefetch                0      0.00%    100.00% # attempts to use FU when none available
system.cpu0.iq.int_alu_accesses             617012211                       # Number of integer alu accesses
system.cpu0.iq.int_inst_queue_reads        2142117098                       # Number of integer instruction queue reads
system.cpu0.iq.int_inst_queue_wakeup_accesses    606181285                       # Number of integer instruction queue wakeup accesses
system.cpu0.iq.int_inst_queue_writes        674201412                       # Number of integer instruction queue writes
system.cpu0.iq.iqInstsAdded                 616722156                       # Number of instructions added to the IQ (excludes non-spec)
system.cpu0.iq.iqInstsIssued                617152867                       # Number of instructions issued
system.cpu0.iq.iqNonSpecInstsAdded            1532795                       # Number of non-speculative instructions added to the IQ
system.cpu0.iq.iqSquashedInstsExamined       55941722                       # Number of squashed instructions iterated over during squash; mainly for profiling
system.cpu0.iq.iqSquashedInstsIssued            76789                       # Number of squashed instructions issued
system.cpu0.iq.iqSquashedNonSpecRemoved           431                       # Number of squashed non-spec instructions that were removed
system.cpu0.iq.iqSquashedOperandsExamined     12451436                       # Number of squashed operands that are examined and possibly removed from graph
system.cpu0.iq.issued_per_cycle::samples    906854297                       # Number of insts issued each cycle
system.cpu0.iq.issued_per_cycle::mean        0.680542                       # Number of insts issued each cycle
system.cpu0.iq.issued_per_cycle::stdev       0.871650                       # Number of insts issued each cycle
system.cpu0.iq.issued_per_cycle::underflows            0      0.00%      0.00% # Number of insts issued each cycle
system.cpu0.iq.issued_per_cycle::0          478262256     52.74%     52.74% # Number of insts issued each cycle
system.cpu0.iq.issued_per_cycle::1          286455958     31.59%     84.33% # Number of insts issued each cycle
system.cpu0.iq.issued_per_cycle::2          104046927     11.47%     95.80% # Number of insts issued each cycle
system.cpu0.iq.issued_per_cycle::3           31333999      3.46%     99.26% # Number of insts issued each cycle
system.cpu0.iq.issued_per_cycle::4            5889660      0.65%     99.90% # Number of insts issued each cycle
system.cpu0.iq.issued_per_cycle::5             384324      0.04%     99.95% # Number of insts issued each cycle
system.cpu0.iq.issued_per_cycle::6             322043      0.04%     99.98% # Number of insts issued each cycle
system.cpu0.iq.issued_per_cycle::7              84500      0.01%     99.99% # Number of insts issued each cycle
system.cpu0.iq.issued_per_cycle::8              74630      0.01%    100.00% # Number of insts issued each cycle
system.cpu0.iq.issued_per_cycle::overflows            0      0.00%    100.00% # Number of insts issued each cycle
system.cpu0.iq.issued_per_cycle::min_value            0                       # Number of insts issued each cycle
system.cpu0.iq.issued_per_cycle::max_value            8                       # Number of insts issued each cycle
system.cpu0.iq.issued_per_cycle::total      906854297                       # Number of insts issued each cycle
system.cpu0.iq.rate                          0.633516                       # Inst issue rate
system.cpu0.iq.vec_alu_accesses                     0                       # Number of vector alu accesses
system.cpu0.iq.vec_inst_queue_reads                 0                       # Number of vector instruction queue reads
system.cpu0.iq.vec_inst_queue_wakeup_accesses            0                       # Number of vector instruction queue wakeup accesses
system.cpu0.iq.vec_inst_queue_writes                0                       # Number of vector instruction queue writes
system.cpu0.itb.accesses                            0                       # DTB accesses
system.cpu0.itb.hits                                0                       # DTB hits
system.cpu0.itb.misses                              0                       # DTB misses
system.cpu0.itb.read_accesses                       0                       # DTB read accesses
system.cpu0.itb.read_hits                           0                       # DTB read hits
system.cpu0.itb.read_misses                         0                       # DTB read misses
system.cpu0.itb.write_accesses                      0                       # DTB write accesses
system.cpu0.itb.write_hits                          0                       # DTB write hits
system.cpu0.itb.write_misses                        0                       # DTB write misses
system.cpu0.memDep0.conflictingLoads          7516857                       # Number of conflicting loads.
system.cpu0.memDep0.conflictingStores         1398692                       # Number of conflicting stores.
system.cpu0.memDep0.insertedLoads           197861209                       # Number of loads inserted to the mem dependence unit.
system.cpu0.memDep0.insertedStores           78823440                       # Number of stores inserted to the mem dependence unit.
system.cpu0.misc_regfile_reads                   1037                       # number of misc regfile reads
system.cpu0.misc_regfile_writes                    22                       # number of misc regfile writes
system.cpu0.numCycles                       974171557                       # number of cpu cycles simulated
system.cpu0.numWorkItemsCompleted                   0                       # number of work items this cpu completed
system.cpu0.numWorkItemsStarted                     0                       # number of work items this cpu started
system.cpu0.quiesceCycles                    12606373                       # Total number of cycles that CPU has spent quiesced or waiting for an interrupt
system.cpu0.rename.BlockCycles               97327479                       # Number of cycles rename is blocking
system.cpu0.rename.CommittedMaps            357823976                       # Number of HB maps that are committed
system.cpu0.rename.IQFullEvents               4043570                       # Number of times rename has blocked due to IQ full
system.cpu0.rename.IdleCycles               353813364                       # Number of cycles rename is idle
system.cpu0.rename.LQFullEvents               4792313                       # Number of times rename has blocked due to LQ full
system.cpu0.rename.ROBFullEvents                 8014                       # Number of times rename has blocked due to ROB full
system.cpu0.rename.RenameLookups            764624874                       # Number of register rename lookups that rename has made
system.cpu0.rename.RenamedInsts             627135576                       # Number of instructions processed by rename
system.cpu0.rename.RenamedOperands          402495264                       # Number of destination operands rename has renamed
system.cpu0.rename.RunCycles                432159588                       # Number of cycles rename is running
system.cpu0.rename.SQFullEvents               9330118                       # Number of times rename has blocked due to SQ full
system.cpu0.rename.SquashCycles               5635675                       # Number of cycles rename is squashing
system.cpu0.rename.UnblockCycles             17817607                       # Number of cycles rename is unblocking
system.cpu0.rename.UndoneMaps                44671284                       # Number of HB maps that are undone due to squashing
system.cpu0.rename.fp_rename_lookups               44                       # Number of floating rename lookups
system.cpu0.rename.int_rename_lookups       764624830                       # Number of integer rename lookups
system.cpu0.rename.serializeStallCycles        100584                       # count of cycles rename stalled for serializing inst
system.cpu0.rename.serializingInsts              3174                       # count of serializing insts renamed
system.cpu0.rename.skidInsts                  8244439                       # count of insts added to the skid buffer
system.cpu0.rename.tempSerializingInsts          3157                       # count of temporary serializing insts renamed
system.cpu0.rob.rob_reads                  1496655364                       # The number of ROB reads
system.cpu0.rob.rob_writes                 1247385945                       # The number of ROB writes
system.cpu0.timesIdled                       11180049                       # Number of times that the entire CPU went into an idle state and unscheduled itself
system.cpu0.workload.numSyscalls                 1004                       # Number of system calls
system.cpu1.branchPred.BTBCorrect                   0                       # Number of correct BTB predictions (this stat may not work properly.
system.cpu1.branchPred.BTBHitPct            80.002264                       # BTB Hit Percentage
system.cpu1.branchPred.BTBHits                2947461                       # Number of BTB hits
system.cpu1.branchPred.BTBLookups             3684222                       # Number of BTB lookups
system.cpu1.branchPred.RASInCorrect                 0                       # Number of incorrect RAS predictions.
system.cpu1.branchPred.condIncorrect           390139                       # Number of conditional branches incorrect
system.cpu1.branchPred.condPredicted          4878043                       # Number of conditional branches predicted
system.cpu1.branchPred.indirectHits            138288                       # Number of indirect target hits.
system.cpu1.branchPred.indirectLookups         141663                       # Number of indirect predictor lookups.
system.cpu1.branchPred.indirectMisses            3375                       # Number of indirect misses.
system.cpu1.branchPred.lookups                5508542                       # Number of BP lookups
system.cpu1.branchPred.usedRAS                      0                       # Number of times the RAS was used to get a target.
system.cpu1.branchPredindirectMispredicted         8881                       # Number of mispredicted indirect branches.
system.cpu1.commit.amos                        509188                       # Number of atomic instructions committed
system.cpu1.commit.branchMispredicts           289571                       # The number of times a branch was mispredicted
system.cpu1.commit.branches                   4420138                       # Number of branches committed
system.cpu1.commit.bw_lim_events               486395                       # number cycles where commit BW limit reached
system.cpu1.commit.commitNonSpecStalls        1528252                       # The number of times commit has been forced to stall to communicate backwards
system.cpu1.commit.commitSquashedInsts        2498468                       # The number of squashed insts skipped by commit
system.cpu1.commit.committedInsts            19246822                       # Number of instructions committed
system.cpu1.commit.committedOps              19756220                       # Number of ops (including micro ops) committed
system.cpu1.commit.committed_per_cycle::samples    114325179                       # Number of insts commited each cycle
system.cpu1.commit.committed_per_cycle::mean     0.172807                       # Number of insts commited each cycle
system.cpu1.commit.committed_per_cycle::stdev     0.822501                       # Number of insts commited each cycle
system.cpu1.commit.committed_per_cycle::underflows            0      0.00%      0.00% # Number of insts commited each cycle
system.cpu1.commit.committed_per_cycle::0    106111649     92.82%     92.82% # Number of insts commited each cycle
system.cpu1.commit.committed_per_cycle::1      4101249      3.59%     96.40% # Number of insts commited each cycle
system.cpu1.commit.committed_per_cycle::2      1378100      1.21%     97.61% # Number of insts commited each cycle
system.cpu1.commit.committed_per_cycle::3      1262661      1.10%     98.71% # Number of insts commited each cycle
system.cpu1.commit.committed_per_cycle::4       322914      0.28%     99.00% # Number of insts commited each cycle
system.cpu1.commit.committed_per_cycle::5       115820      0.10%     99.10% # Number of insts commited each cycle
system.cpu1.commit.committed_per_cycle::6       475865      0.42%     99.51% # Number of insts commited each cycle
system.cpu1.commit.committed_per_cycle::7        70526      0.06%     99.57% # Number of insts commited each cycle
system.cpu1.commit.committed_per_cycle::8       486395      0.43%    100.00% # Number of insts commited each cycle
system.cpu1.commit.committed_per_cycle::overflows            0      0.00%    100.00% # Number of insts commited each cycle
system.cpu1.commit.committed_per_cycle::min_value            0                       # Number of insts commited each cycle
system.cpu1.commit.committed_per_cycle::max_value            8                       # Number of insts commited each cycle
system.cpu1.commit.committed_per_cycle::total    114325179                       # Number of insts commited each cycle
system.cpu1.commit.fp_insts                        12                       # Number of committed floating point instructions.
system.cpu1.commit.function_calls              227572                       # Number of function calls committed.
system.cpu1.commit.int_insts                 18555546                       # Number of committed integer instructions.
system.cpu1.commit.loads                      5320603                       # Number of loads committed
system.cpu1.commit.membars                    1018447                       # Number of memory barriers committed
system.cpu1.commit.op_class_0::No_OpClass      1018447      5.16%      5.16% # Class of committed instruction
system.cpu1.commit.op_class_0::IntAlu        11647943     58.96%     64.11% # Class of committed instruction
system.cpu1.commit.op_class_0::IntMult             42      0.00%     64.11% # Class of committed instruction
system.cpu1.commit.op_class_0::IntDiv              84      0.00%     64.11% # Class of committed instruction
system.cpu1.commit.op_class_0::FloatAdd             0      0.00%     64.11% # Class of committed instruction
system.cpu1.commit.op_class_0::FloatCmp             0      0.00%     64.11% # Class of committed instruction
system.cpu1.commit.op_class_0::FloatCvt             0      0.00%     64.11% # Class of committed instruction
system.cpu1.commit.op_class_0::FloatMult            0      0.00%     64.11% # Class of committed instruction
system.cpu1.commit.op_class_0::FloatMultAcc            0      0.00%     64.11% # Class of committed instruction
system.cpu1.commit.op_class_0::FloatDiv             0      0.00%     64.11% # Class of committed instruction
system.cpu1.commit.op_class_0::FloatMisc            0      0.00%     64.11% # Class of committed instruction
system.cpu1.commit.op_class_0::FloatSqrt            0      0.00%     64.11% # Class of committed instruction
system.cpu1.commit.op_class_0::SimdAdd              0      0.00%     64.11% # Class of committed instruction
system.cpu1.commit.op_class_0::SimdAddAcc            0      0.00%     64.11% # Class of committed instruction
system.cpu1.commit.op_class_0::SimdAlu              0      0.00%     64.11% # Class of committed instruction
system.cpu1.commit.op_class_0::SimdCmp              0      0.00%     64.11% # Class of committed instruction
system.cpu1.commit.op_class_0::SimdCvt              0      0.00%     64.11% # Class of committed instruction
system.cpu1.commit.op_class_0::SimdMisc             0      0.00%     64.11% # Class of committed instruction
system.cpu1.commit.op_class_0::SimdMult             0      0.00%     64.11% # Class of committed instruction
system.cpu1.commit.op_class_0::SimdMultAcc            0      0.00%     64.11% # Class of committed instruction
system.cpu1.commit.op_class_0::SimdShift            0      0.00%     64.11% # Class of committed instruction
system.cpu1.commit.op_class_0::SimdShiftAcc            0      0.00%     64.11% # Class of committed instruction
system.cpu1.commit.op_class_0::SimdDiv              0      0.00%     64.11% # Class of committed instruction
system.cpu1.commit.op_class_0::SimdSqrt             0      0.00%     64.11% # Class of committed instruction
system.cpu1.commit.op_class_0::SimdFloatAdd            0      0.00%     64.11% # Class of committed instruction
system.cpu1.commit.op_class_0::SimdFloatAlu            0      0.00%     64.11% # Class of committed instruction
system.cpu1.commit.op_class_0::SimdFloatCmp            0      0.00%     64.11% # Class of committed instruction
system.cpu1.commit.op_class_0::SimdFloatCvt            0      0.00%     64.11% # Class of committed instruction
system.cpu1.commit.op_class_0::SimdFloatDiv            0      0.00%     64.11% # Class of committed instruction
system.cpu1.commit.op_class_0::SimdFloatMisc            0      0.00%     64.11% # Class of committed instruction
system.cpu1.commit.op_class_0::SimdFloatMult            0      0.00%     64.11% # Class of committed instruction
system.cpu1.commit.op_class_0::SimdFloatMultAcc            0      0.00%     64.11% # Class of committed instruction
system.cpu1.commit.op_class_0::SimdFloatSqrt            0      0.00%     64.11% # Class of committed instruction
system.cpu1.commit.op_class_0::SimdReduceAdd            0      0.00%     64.11% # Class of committed instruction
system.cpu1.commit.op_class_0::SimdReduceAlu            0      0.00%     64.11% # Class of committed instruction
system.cpu1.commit.op_class_0::SimdReduceCmp            0      0.00%     64.11% # Class of committed instruction
system.cpu1.commit.op_class_0::SimdFloatReduceAdd            0      0.00%     64.11% # Class of committed instruction
system.cpu1.commit.op_class_0::SimdFloatReduceCmp            0      0.00%     64.11% # Class of committed instruction
system.cpu1.commit.op_class_0::SimdAes              0      0.00%     64.11% # Class of committed instruction
system.cpu1.commit.op_class_0::SimdAesMix            0      0.00%     64.11% # Class of committed instruction
system.cpu1.commit.op_class_0::SimdSha1Hash            0      0.00%     64.11% # Class of committed instruction
system.cpu1.commit.op_class_0::SimdSha1Hash2            0      0.00%     64.11% # Class of committed instruction
system.cpu1.commit.op_class_0::SimdSha256Hash            0      0.00%     64.11% # Class of committed instruction
system.cpu1.commit.op_class_0::SimdSha256Hash2            0      0.00%     64.11% # Class of committed instruction
system.cpu1.commit.op_class_0::SimdShaSigma2            0      0.00%     64.11% # Class of committed instruction
system.cpu1.commit.op_class_0::SimdShaSigma3            0      0.00%     64.11% # Class of committed instruction
system.cpu1.commit.op_class_0::SimdPredAlu            0      0.00%     64.11% # Class of committed instruction
system.cpu1.commit.op_class_0::MemRead        5829791     29.51%     93.62% # Class of committed instruction
system.cpu1.commit.op_class_0::MemWrite       1259901      6.38%    100.00% # Class of committed instruction
system.cpu1.commit.op_class_0::FloatMemRead            0      0.00%    100.00% # Class of committed instruction
system.cpu1.commit.op_class_0::FloatMemWrite           12      0.00%    100.00% # Class of committed instruction
system.cpu1.commit.op_class_0::IprAccess            0      0.00%    100.00% # Class of committed instruction
system.cpu1.commit.op_class_0::InstPrefetch            0      0.00%    100.00% # Class of committed instruction
system.cpu1.commit.op_class_0::total         19756220                       # Class of committed instruction
system.cpu1.commit.refs                       7089704                       # Number of memory references committed
system.cpu1.commit.swp_count                        0                       # Number of s/w prefetches committed
system.cpu1.commit.vec_insts                        0                       # Number of committed Vector instructions.
system.cpu1.committedInsts                   19246822                       # Number of Instructions Simulated
system.cpu1.committedOps                     19756220                       # Number of Ops (including micro ops) Simulated
system.cpu1.cpi                              6.001611                       # CPI: Cycles Per Instruction
system.cpu1.cpi_total                        6.001611                       # CPI: Total CPI of All Threads
system.cpu1.decode.BlockedCycles            100987100                       # Number of cycles decode is blocked
system.cpu1.decode.BranchMispred               105917                       # Number of times decode detected a branch misprediction
system.cpu1.decode.BranchResolved             2801880                       # Number of times decode resolved a branch
system.cpu1.decode.DecodedInsts              23321584                       # Number of instructions handled by decode
system.cpu1.decode.IdleCycles                 3771969                       # Number of cycles decode is idle
system.cpu1.decode.RunCycles                  8688737                       # Number of cycles decode is running
system.cpu1.decode.SquashCycles                290023                       # Number of cycles decode is squashing
system.cpu1.decode.SquashedInsts               264089                       # Number of squashed instructions handled by decode
system.cpu1.decode.UnblockCycles              1095440                       # Number of cycles decode is unblocking
system.cpu1.dtb.accesses                            0                       # DTB accesses
system.cpu1.dtb.hits                                0                       # DTB hits
system.cpu1.dtb.misses                              0                       # DTB misses
system.cpu1.dtb.read_accesses                       0                       # DTB read accesses
system.cpu1.dtb.read_hits                           0                       # DTB read hits
system.cpu1.dtb.read_misses                         0                       # DTB read misses
system.cpu1.dtb.write_accesses                      0                       # DTB write accesses
system.cpu1.dtb.write_hits                          0                       # DTB write hits
system.cpu1.dtb.write_misses                        0                       # DTB write misses
system.cpu1.fetch.Branches                    5508542                       # Number of branches that fetch encountered
system.cpu1.fetch.CacheLines                  3657267                       # Number of cache lines fetched
system.cpu1.fetch.Cycles                    110350338                       # Number of cycles fetch has run and was not squashing or blocked
system.cpu1.fetch.IcacheSquashes                72123                       # Number of outstanding Icache misses that were squashed
system.cpu1.fetch.Insts                      23908986                       # Number of instructions fetch has processed
system.cpu1.fetch.MiscStallCycles                   1                       # Number of cycles fetch has spent waiting on interrupts, or bad addresses, or out of MSHRs
system.cpu1.fetch.SquashCycles                 781182                       # Number of cycles fetch has spent squashing
system.cpu1.fetch.branchRate                 0.047688                       # Number of branch fetches per cycle
system.cpu1.fetch.icacheStallCycles           4092339                       # Number of cycles fetch is stalled on an Icache miss
system.cpu1.fetch.predictedBranches           3085749                       # Number of branches that fetch has predicted taken
system.cpu1.fetch.rate                       0.206983                       # Number of inst fetches per cycle
system.cpu1.fetch.rateDist::samples         114833269                       # Number of instructions fetched each cycle (Total)
system.cpu1.fetch.rateDist::mean             0.212652                       # Number of instructions fetched each cycle (Total)
system.cpu1.fetch.rateDist::stdev            0.636364                       # Number of instructions fetched each cycle (Total)
system.cpu1.fetch.rateDist::underflows              0      0.00%      0.00% # Number of instructions fetched each cycle (Total)
system.cpu1.fetch.rateDist::0                99617878     86.75%     86.75% # Number of instructions fetched each cycle (Total)
system.cpu1.fetch.rateDist::1                 9283026      8.08%     94.83% # Number of instructions fetched each cycle (Total)
system.cpu1.fetch.rateDist::2                 3498853      3.05%     97.88% # Number of instructions fetched each cycle (Total)
system.cpu1.fetch.rateDist::3                 1846845      1.61%     99.49% # Number of instructions fetched each cycle (Total)
system.cpu1.fetch.rateDist::4                  406811      0.35%     99.84% # Number of instructions fetched each cycle (Total)
system.cpu1.fetch.rateDist::5                  108452      0.09%     99.94% # Number of instructions fetched each cycle (Total)
system.cpu1.fetch.rateDist::6                   71226      0.06%    100.00% # Number of instructions fetched each cycle (Total)
system.cpu1.fetch.rateDist::7                      11      0.00%    100.00% # Number of instructions fetched each cycle (Total)
system.cpu1.fetch.rateDist::8                     167      0.00%    100.00% # Number of instructions fetched each cycle (Total)
system.cpu1.fetch.rateDist::overflows               0      0.00%    100.00% # Number of instructions fetched each cycle (Total)
system.cpu1.fetch.rateDist::min_value               0                       # Number of instructions fetched each cycle (Total)
system.cpu1.fetch.rateDist::max_value               8                       # Number of instructions fetched each cycle (Total)
system.cpu1.fetch.rateDist::total           114833269                       # Number of instructions fetched each cycle (Total)
system.cpu1.fp_regfile_reads                       12                       # number of floating regfile reads
system.cpu1.idleCycles                         678668                       # Total number of cycles that the CPU has spent unscheduled due to idling
system.cpu1.iew.branchMispredicts              309664                       # Number of branch mispredicts detected at execute
system.cpu1.iew.exec_branches                 4782035                       # Number of branches executed
system.cpu1.iew.exec_nop                            0                       # number of nop insts executed
system.cpu1.iew.exec_rate                    0.186431                       # Inst execution rate
system.cpu1.iew.exec_refs                     7773113                       # number of memory reference insts executed
system.cpu1.iew.exec_stores                   1855621                       # Number of stores executed
system.cpu1.iew.exec_swp                            0                       # number of swp insts executed
system.cpu1.iew.iewBlockCycles               86438689                       # Number of cycles IEW is blocking
system.cpu1.iew.iewDispLoadInsts              5976167                       # Number of dispatched load instructions
system.cpu1.iew.iewDispNonSpecInsts            510037                       # Number of dispatched non-speculative instructions
system.cpu1.iew.iewDispSquashedInsts           308930                       # Number of squashed instructions skipped by dispatch
system.cpu1.iew.iewDispStoreInsts             1934297                       # Number of dispatched store instructions
system.cpu1.iew.iewDispatchedInsts           22249451                       # Number of instructions dispatched to IQ
system.cpu1.iew.iewExecLoadInsts              5917492                       # Number of load instructions executed
system.cpu1.iew.iewExecSquashedInsts           271127                       # Number of squashed instructions skipped in execute
system.cpu1.iew.iewExecutedInsts             21535016                       # Number of executed instructions
system.cpu1.iew.iewIQFullEvents                331434                       # Number of times the IQ has become full, causing a stall
system.cpu1.iew.iewIdleCycles                       0                       # Number of cycles IEW is idle
system.cpu1.iew.iewLSQFullEvents               866327                       # Number of times the LSQ has become full, causing a stall
system.cpu1.iew.iewSquashCycles                290023                       # Number of cycles IEW is squashing
system.cpu1.iew.iewUnblockCycles              1826520                       # Number of cycles IEW is unblocking
system.cpu1.iew.lsq.thread0.blockedLoads            0                       # Number of blocked loads due to partial load-store forwarding
system.cpu1.iew.lsq.thread0.cacheBlocked        20455                       # Number of times an access to memory failed due to the cache being blocked
system.cpu1.iew.lsq.thread0.forwLoads          146950                       # Number of loads that had data forwarded from stores
system.cpu1.iew.lsq.thread0.ignoredResponses         6939                       # Number of memory responses ignored because the instruction is squashed
system.cpu1.iew.lsq.thread0.invAddrLoads            0                       # Number of loads ignored due to an invalid address
system.cpu1.iew.lsq.thread0.invAddrSwpfs            0                       # Number of software prefetches ignored due to an invalid address
system.cpu1.iew.lsq.thread0.memOrderViolation          434                       # Number of memory ordering violations
system.cpu1.iew.lsq.thread0.rescheduledLoads         1247                       # Number of loads that were rescheduled
system.cpu1.iew.lsq.thread0.squashedLoads       655564                       # Number of loads squashed
system.cpu1.iew.lsq.thread0.squashedStores       165196                       # Number of stores squashed
system.cpu1.iew.memOrderViolationEvents           434                       # Number of memory order violations
system.cpu1.iew.predictedNotTakenIncorrect        93010                       # Number of branches that were predicted not taken incorrectly
system.cpu1.iew.predictedTakenIncorrect        216654                       # Number of branches that were predicted taken incorrectly
system.cpu1.iew.wb_consumers                 12371743                       # num instructions consuming a value
system.cpu1.iew.wb_count                     21248294                       # cumulative count of insts written-back
system.cpu1.iew.wb_fanout                    0.838549                       # average fanout of values written-back
system.cpu1.iew.wb_producers                 10374308                       # num instructions producing a value
system.cpu1.iew.wb_rate                      0.183949                       # insts written-back per cycle
system.cpu1.iew.wb_sent                      21257323                       # cumulative count of insts sent to commit
system.cpu1.int_regfile_reads                26823898                       # number of integer regfile reads
system.cpu1.int_regfile_writes               14238380                       # number of integer regfile writes
system.cpu1.ipc                              0.166622                       # IPC: Instructions Per Cycle
system.cpu1.ipc_total                        0.166622                       # IPC: Total IPC of All Threads
system.cpu1.iq.FU_type_0::No_OpClass          1018653      4.67%      4.67% # Type of FU issued
system.cpu1.iq.FU_type_0::IntAlu             12927307     59.28%     63.95% # Type of FU issued
system.cpu1.iq.FU_type_0::IntMult                  48      0.00%     63.95% # Type of FU issued
system.cpu1.iq.FU_type_0::IntDiv                   86      0.00%     63.95% # Type of FU issued
system.cpu1.iq.FU_type_0::FloatAdd                  0      0.00%     63.95% # Type of FU issued
system.cpu1.iq.FU_type_0::FloatCmp                  0      0.00%     63.95% # Type of FU issued
system.cpu1.iq.FU_type_0::FloatCvt                  0      0.00%     63.95% # Type of FU issued
system.cpu1.iq.FU_type_0::FloatMult                 0      0.00%     63.95% # Type of FU issued
system.cpu1.iq.FU_type_0::FloatMultAcc              0      0.00%     63.95% # Type of FU issued
system.cpu1.iq.FU_type_0::FloatDiv                  0      0.00%     63.95% # Type of FU issued
system.cpu1.iq.FU_type_0::FloatMisc                 0      0.00%     63.95% # Type of FU issued
system.cpu1.iq.FU_type_0::FloatSqrt                 0      0.00%     63.95% # Type of FU issued
system.cpu1.iq.FU_type_0::SimdAdd                   0      0.00%     63.95% # Type of FU issued
system.cpu1.iq.FU_type_0::SimdAddAcc                0      0.00%     63.95% # Type of FU issued
system.cpu1.iq.FU_type_0::SimdAlu                   0      0.00%     63.95% # Type of FU issued
system.cpu1.iq.FU_type_0::SimdCmp                   0      0.00%     63.95% # Type of FU issued
system.cpu1.iq.FU_type_0::SimdCvt                   0      0.00%     63.95% # Type of FU issued
system.cpu1.iq.FU_type_0::SimdMisc                  0      0.00%     63.95% # Type of FU issued
system.cpu1.iq.FU_type_0::SimdMult                  0      0.00%     63.95% # Type of FU issued
system.cpu1.iq.FU_type_0::SimdMultAcc               0      0.00%     63.95% # Type of FU issued
system.cpu1.iq.FU_type_0::SimdShift                 0      0.00%     63.95% # Type of FU issued
system.cpu1.iq.FU_type_0::SimdShiftAcc              0      0.00%     63.95% # Type of FU issued
system.cpu1.iq.FU_type_0::SimdDiv                   0      0.00%     63.95% # Type of FU issued
system.cpu1.iq.FU_type_0::SimdSqrt                  0      0.00%     63.95% # Type of FU issued
system.cpu1.iq.FU_type_0::SimdFloatAdd              0      0.00%     63.95% # Type of FU issued
system.cpu1.iq.FU_type_0::SimdFloatAlu              0      0.00%     63.95% # Type of FU issued
system.cpu1.iq.FU_type_0::SimdFloatCmp              0      0.00%     63.95% # Type of FU issued
system.cpu1.iq.FU_type_0::SimdFloatCvt              0      0.00%     63.95% # Type of FU issued
system.cpu1.iq.FU_type_0::SimdFloatDiv              0      0.00%     63.95% # Type of FU issued
system.cpu1.iq.FU_type_0::SimdFloatMisc             0      0.00%     63.95% # Type of FU issued
system.cpu1.iq.FU_type_0::SimdFloatMult             0      0.00%     63.95% # Type of FU issued
system.cpu1.iq.FU_type_0::SimdFloatMultAcc            0      0.00%     63.95% # Type of FU issued
system.cpu1.iq.FU_type_0::SimdFloatSqrt             0      0.00%     63.95% # Type of FU issued
system.cpu1.iq.FU_type_0::SimdReduceAdd             0      0.00%     63.95% # Type of FU issued
system.cpu1.iq.FU_type_0::SimdReduceAlu             0      0.00%     63.95% # Type of FU issued
system.cpu1.iq.FU_type_0::SimdReduceCmp             0      0.00%     63.95% # Type of FU issued
system.cpu1.iq.FU_type_0::SimdFloatReduceAdd            0      0.00%     63.95% # Type of FU issued
system.cpu1.iq.FU_type_0::SimdFloatReduceCmp            0      0.00%     63.95% # Type of FU issued
system.cpu1.iq.FU_type_0::SimdAes                   0      0.00%     63.95% # Type of FU issued
system.cpu1.iq.FU_type_0::SimdAesMix                0      0.00%     63.95% # Type of FU issued
system.cpu1.iq.FU_type_0::SimdSha1Hash              0      0.00%     63.95% # Type of FU issued
system.cpu1.iq.FU_type_0::SimdSha1Hash2             0      0.00%     63.95% # Type of FU issued
system.cpu1.iq.FU_type_0::SimdSha256Hash            0      0.00%     63.95% # Type of FU issued
system.cpu1.iq.FU_type_0::SimdSha256Hash2            0      0.00%     63.95% # Type of FU issued
system.cpu1.iq.FU_type_0::SimdShaSigma2             0      0.00%     63.95% # Type of FU issued
system.cpu1.iq.FU_type_0::SimdShaSigma3             0      0.00%     63.95% # Type of FU issued
system.cpu1.iq.FU_type_0::SimdPredAlu               0      0.00%     63.95% # Type of FU issued
system.cpu1.iq.FU_type_0::MemRead             6497435     29.80%     93.75% # Type of FU issued
system.cpu1.iq.FU_type_0::MemWrite            1362602      6.25%    100.00% # Type of FU issued
system.cpu1.iq.FU_type_0::FloatMemRead              0      0.00%    100.00% # Type of FU issued
system.cpu1.iq.FU_type_0::FloatMemWrite            12      0.00%    100.00% # Type of FU issued
system.cpu1.iq.FU_type_0::IprAccess                 0      0.00%    100.00% # Type of FU issued
system.cpu1.iq.FU_type_0::InstPrefetch              0      0.00%    100.00% # Type of FU issued
system.cpu1.iq.FU_type_0::total              21806143                       # Type of FU issued
system.cpu1.iq.fp_alu_accesses                     16                       # Number of floating point alu accesses
system.cpu1.iq.fp_inst_queue_reads                 28                       # Number of floating instruction queue reads
system.cpu1.iq.fp_inst_queue_wakeup_accesses           12                       # Number of floating instruction queue wakeup accesses
system.cpu1.iq.fp_inst_queue_writes                12                       # Number of floating instruction queue writes
system.cpu1.iq.fu_busy_cnt                     607641                       # FU busy when requested
system.cpu1.iq.fu_busy_rate                  0.027866                       # FU busy rate (busy events/executed inst)
system.cpu1.iq.fu_full::No_OpClass                  0      0.00%      0.00% # attempts to use FU when none available
system.cpu1.iq.fu_full::IntAlu                 122900     20.23%     20.23% # attempts to use FU when none available
system.cpu1.iq.fu_full::IntMult                     0      0.00%     20.23% # attempts to use FU when none available
system.cpu1.iq.fu_full::IntDiv                      0      0.00%     20.23% # attempts to use FU when none available
system.cpu1.iq.fu_full::FloatAdd                    0      0.00%     20.23% # attempts to use FU when none available
system.cpu1.iq.fu_full::FloatCmp                    0      0.00%     20.23% # attempts to use FU when none available
system.cpu1.iq.fu_full::FloatCvt                    0      0.00%     20.23% # attempts to use FU when none available
system.cpu1.iq.fu_full::FloatMult                   0      0.00%     20.23% # attempts to use FU when none available
system.cpu1.iq.fu_full::FloatMultAcc                0      0.00%     20.23% # attempts to use FU when none available
system.cpu1.iq.fu_full::FloatDiv                    0      0.00%     20.23% # attempts to use FU when none available
system.cpu1.iq.fu_full::FloatMisc                   0      0.00%     20.23% # attempts to use FU when none available
system.cpu1.iq.fu_full::FloatSqrt                   0      0.00%     20.23% # attempts to use FU when none available
system.cpu1.iq.fu_full::SimdAdd                     0      0.00%     20.23% # attempts to use FU when none available
system.cpu1.iq.fu_full::SimdAddAcc                  0      0.00%     20.23% # attempts to use FU when none available
system.cpu1.iq.fu_full::SimdAlu                     0      0.00%     20.23% # attempts to use FU when none available
system.cpu1.iq.fu_full::SimdCmp                     0      0.00%     20.23% # attempts to use FU when none available
system.cpu1.iq.fu_full::SimdCvt                     0      0.00%     20.23% # attempts to use FU when none available
system.cpu1.iq.fu_full::SimdMisc                    0      0.00%     20.23% # attempts to use FU when none available
system.cpu1.iq.fu_full::SimdMult                    0      0.00%     20.23% # attempts to use FU when none available
system.cpu1.iq.fu_full::SimdMultAcc                 0      0.00%     20.23% # attempts to use FU when none available
system.cpu1.iq.fu_full::SimdShift                   0      0.00%     20.23% # attempts to use FU when none available
system.cpu1.iq.fu_full::SimdShiftAcc                0      0.00%     20.23% # attempts to use FU when none available
system.cpu1.iq.fu_full::SimdDiv                     0      0.00%     20.23% # attempts to use FU when none available
system.cpu1.iq.fu_full::SimdSqrt                    0      0.00%     20.23% # attempts to use FU when none available
system.cpu1.iq.fu_full::SimdFloatAdd                0      0.00%     20.23% # attempts to use FU when none available
system.cpu1.iq.fu_full::SimdFloatAlu                0      0.00%     20.23% # attempts to use FU when none available
system.cpu1.iq.fu_full::SimdFloatCmp                0      0.00%     20.23% # attempts to use FU when none available
system.cpu1.iq.fu_full::SimdFloatCvt                0      0.00%     20.23% # attempts to use FU when none available
system.cpu1.iq.fu_full::SimdFloatDiv                0      0.00%     20.23% # attempts to use FU when none available
system.cpu1.iq.fu_full::SimdFloatMisc               0      0.00%     20.23% # attempts to use FU when none available
system.cpu1.iq.fu_full::SimdFloatMult               0      0.00%     20.23% # attempts to use FU when none available
system.cpu1.iq.fu_full::SimdFloatMultAcc            0      0.00%     20.23% # attempts to use FU when none available
system.cpu1.iq.fu_full::SimdFloatSqrt               0      0.00%     20.23% # attempts to use FU when none available
system.cpu1.iq.fu_full::SimdReduceAdd               0      0.00%     20.23% # attempts to use FU when none available
system.cpu1.iq.fu_full::SimdReduceAlu               0      0.00%     20.23% # attempts to use FU when none available
system.cpu1.iq.fu_full::SimdReduceCmp               0      0.00%     20.23% # attempts to use FU when none available
system.cpu1.iq.fu_full::SimdFloatReduceAdd            0      0.00%     20.23% # attempts to use FU when none available
system.cpu1.iq.fu_full::SimdFloatReduceCmp            0      0.00%     20.23% # attempts to use FU when none available
system.cpu1.iq.fu_full::SimdAes                     0      0.00%     20.23% # attempts to use FU when none available
system.cpu1.iq.fu_full::SimdAesMix                  0      0.00%     20.23% # attempts to use FU when none available
system.cpu1.iq.fu_full::SimdSha1Hash                0      0.00%     20.23% # attempts to use FU when none available
system.cpu1.iq.fu_full::SimdSha1Hash2               0      0.00%     20.23% # attempts to use FU when none available
system.cpu1.iq.fu_full::SimdSha256Hash              0      0.00%     20.23% # attempts to use FU when none available
system.cpu1.iq.fu_full::SimdSha256Hash2             0      0.00%     20.23% # attempts to use FU when none available
system.cpu1.iq.fu_full::SimdShaSigma2               0      0.00%     20.23% # attempts to use FU when none available
system.cpu1.iq.fu_full::SimdShaSigma3               0      0.00%     20.23% # attempts to use FU when none available
system.cpu1.iq.fu_full::SimdPredAlu                 0      0.00%     20.23% # attempts to use FU when none available
system.cpu1.iq.fu_full::MemRead                426383     70.17%     90.40% # attempts to use FU when none available
system.cpu1.iq.fu_full::MemWrite                58354      9.60%    100.00% # attempts to use FU when none available
[...]
system.cpu1.dcache.WriteReq_mshr_miss_rate::.cpu1.data     0.041033                       # mshr miss rate for WriteReq accesses
system.cpu1.dcache.WriteReq_mshr_miss_rate::total     0.041033                       # mshr miss rate for WriteReq accesses
system.cpu1.dcache.WriteReq_avg_mshr_miss_latency::.cpu1.data 91276.763075                       # average WriteReq mshr miss latency
system.cpu1.dcache.WriteReq_avg_mshr_miss_latency::total 91276.763075                       # average WriteReq mshr miss latency
system.cpu1.dcache.LoadLockedReq_hits::.cpu1.data        30753                       # number of LoadLockedReq hits
system.cpu1.dcache.LoadLockedReq_hits::total        30753                       # number of LoadLockedReq hits
system.cpu1.dcache.LoadLockedReq_misses::.cpu1.data         1651                       # number of LoadLockedReq misses
system.cpu1.dcache.LoadLockedReq_misses::total         1651                       # number of LoadLockedReq misses
system.cpu1.dcache.LoadLockedReq_miss_latency::.cpu1.data     42029500                       # number of LoadLockedReq miss cycles
system.cpu1.dcache.LoadLockedReq_miss_latency::total     42029500                       # number of LoadLockedReq miss cycles
system.cpu1.dcache.LoadLockedReq_accesses::.cpu1.data        32404                       # number of LoadLockedReq accesses(hits+misses)
system.cpu1.dcache.LoadLockedReq_accesses::total        32404                       # number of LoadLockedReq accesses(hits+misses)
system.cpu1.dcache.LoadLockedReq_miss_rate::.cpu1.data     0.050950                       # miss rate for LoadLockedReq accesses
system.cpu1.dcache.LoadLockedReq_miss_rate::total     0.050950                       # miss rate for LoadLockedReq accesses
system.cpu1.dcache.LoadLockedReq_avg_miss_latency::.cpu1.data 25456.995760                       # average LoadLockedReq miss latency
system.cpu1.dcache.LoadLockedReq_avg_miss_latency::total 25456.995760                       # average LoadLockedReq miss latency
system.cpu1.dcache.LoadLockedReq_mshr_hits::.cpu1.data          458                       # number of LoadLockedReq MSHR hits
system.cpu1.dcache.LoadLockedReq_mshr_hits::total          458                       # number of LoadLockedReq MSHR hits
system.cpu1.dcache.LoadLockedReq_mshr_misses::.cpu1.data         1193                       # number of LoadLockedReq MSHR misses
system.cpu1.dcache.LoadLockedReq_mshr_misses::total         1193                       # number of LoadLockedReq MSHR misses
system.cpu1.dcache.LoadLockedReq_mshr_miss_latency::.cpu1.data     15401500                       # number of LoadLockedReq MSHR miss cycles
system.cpu1.dcache.LoadLockedReq_mshr_miss_latency::total     15401500                       # number of LoadLockedReq MSHR miss cycles
system.cpu1.dcache.LoadLockedReq_mshr_miss_rate::.cpu1.data     0.036816                       # mshr miss rate for LoadLockedReq accesses
system.cpu1.dcache.LoadLockedReq_mshr_miss_rate::total     0.036816                       # mshr miss rate for LoadLockedReq accesses
system.cpu1.dcache.LoadLockedReq_avg_mshr_miss_latency::.cpu1.data 12909.891031                       # average LoadLockedReq mshr miss latency
system.cpu1.dcache.LoadLockedReq_avg_mshr_miss_latency::total 12909.891031                       # average LoadLockedReq mshr miss latency
system.cpu1.dcache.StoreCondReq_hits::.cpu1.data        24982                       # number of StoreCondReq hits
system.cpu1.dcache.StoreCondReq_hits::total        24982                       # number of StoreCondReq hits
system.cpu1.dcache.StoreCondReq_misses::.cpu1.data         6027                       # number of StoreCondReq misses
system.cpu1.dcache.StoreCondReq_misses::total         6027                       # number of StoreCondReq misses
system.cpu1.dcache.StoreCondReq_miss_latency::.cpu1.data     43441500                       # number of StoreCondReq miss cycles
system.cpu1.dcache.StoreCondReq_miss_latency::total     43441500                       # number of StoreCondReq miss cycles
system.cpu1.dcache.StoreCondReq_accesses::.cpu1.data        31009                       # number of StoreCondReq accesses(hits+misses)
system.cpu1.dcache.StoreCondReq_accesses::total        31009                       # number of StoreCondReq accesses(hits+misses)
system.cpu1.dcache.StoreCondReq_miss_rate::.cpu1.data     0.194363                       # miss rate for StoreCondReq accesses
system.cpu1.dcache.StoreCondReq_miss_rate::total     0.194363                       # miss rate for StoreCondReq accesses
system.cpu1.dcache.StoreCondReq_avg_miss_latency::.cpu1.data  7207.814833                       # average StoreCondReq miss latency
system.cpu1.dcache.StoreCondReq_avg_miss_latency::total  7207.814833                       # average StoreCondReq miss latency
system.cpu1.dcache.StoreCondReq_mshr_misses::.cpu1.data         5864                       # number of StoreCondReq MSHR misses
system.cpu1.dcache.StoreCondReq_mshr_misses::total         5864                       # number of StoreCondReq MSHR misses
system.cpu1.dcache.StoreCondReq_mshr_miss_latency::.cpu1.data     37727500                       # number of StoreCondReq MSHR miss cycles
system.cpu1.dcache.StoreCondReq_mshr_miss_latency::total     37727500                       # number of StoreCondReq MSHR miss cycles
system.cpu1.dcache.StoreCondReq_mshr_miss_rate::.cpu1.data     0.189106                       # mshr miss rate for StoreCondReq accesses
system.cpu1.dcache.StoreCondReq_mshr_miss_rate::total     0.189106                       # mshr miss rate for StoreCondReq accesses
system.cpu1.dcache.StoreCondReq_avg_mshr_miss_latency::.cpu1.data  6433.748295                       # average StoreCondReq mshr miss latency
system.cpu1.dcache.StoreCondReq_avg_mshr_miss_latency::total  6433.748295                       # average StoreCondReq mshr miss latency
system.cpu1.dcache.StoreCondFailReq_miss_latency::.cpu1.data      2077000                       # number of StoreCondFailReq miss cycles
system.cpu1.dcache.StoreCondFailReq_miss_latency::total      2077000                       # number of StoreCondFailReq miss cycles
system.cpu1.dcache.StoreCondFailReq_avg_miss_latency::.cpu1.data          inf                       # average StoreCondFailReq miss latency
system.cpu1.dcache.StoreCondFailReq_avg_miss_latency::total          inf                       # average StoreCondFailReq miss latency
system.cpu1.dcache.StoreCondFailReq_mshr_miss_latency::.cpu1.data      1927000                       # number of StoreCondFailReq MSHR miss cycles
system.cpu1.dcache.StoreCondFailReq_mshr_miss_latency::total      1927000                       # number of StoreCondFailReq MSHR miss cycles
system.cpu1.dcache.StoreCondFailReq_avg_mshr_miss_latency::.cpu1.data          inf                       # average StoreCondFailReq mshr miss latency
system.cpu1.dcache.StoreCondFailReq_avg_mshr_miss_latency::total          inf                       # average StoreCondFailReq mshr miss latency
system.cpu1.dcache.SwapReq_hits::.cpu1.data         1038                       # number of SwapReq hits
system.cpu1.dcache.SwapReq_hits::total           1038                       # number of SwapReq hits
system.cpu1.dcache.SwapReq_misses::.cpu1.data         2945                       # number of SwapReq misses
system.cpu1.dcache.SwapReq_misses::total         2945                       # number of SwapReq misses
system.cpu1.dcache.SwapReq_miss_latency::.cpu1.data     58835500                       # number of SwapReq miss cycles
system.cpu1.dcache.SwapReq_miss_latency::total     58835500                       # number of SwapReq miss cycles
system.cpu1.dcache.SwapReq_accesses::.cpu1.data         3983                       # number of SwapReq accesses(hits+misses)
system.cpu1.dcache.SwapReq_accesses::total         3983                       # number of SwapReq accesses(hits+misses)
system.cpu1.dcache.SwapReq_miss_rate::.cpu1.data     0.739392                       # miss rate for SwapReq accesses
system.cpu1.dcache.SwapReq_miss_rate::total     0.739392                       # miss rate for SwapReq accesses
system.cpu1.dcache.SwapReq_avg_miss_latency::.cpu1.data 19978.098472                       # average SwapReq miss latency
system.cpu1.dcache.SwapReq_avg_miss_latency::total 19978.098472                       # average SwapReq miss latency
system.cpu1.dcache.SwapReq_mshr_hits::.cpu1.data            1                       # number of SwapReq MSHR hits
system.cpu1.dcache.SwapReq_mshr_hits::total            1                       # number of SwapReq MSHR hits
system.cpu1.dcache.SwapReq_mshr_misses::.cpu1.data         2944                       # number of SwapReq MSHR misses
system.cpu1.dcache.SwapReq_mshr_misses::total         2944                       # number of SwapReq MSHR misses
system.cpu1.dcache.SwapReq_mshr_miss_latency::.cpu1.data     55890500                       # number of SwapReq MSHR miss cycles
system.cpu1.dcache.SwapReq_mshr_miss_latency::total     55890500                       # number of SwapReq MSHR miss cycles
system.cpu1.dcache.SwapReq_mshr_miss_rate::.cpu1.data     0.739141                       # mshr miss rate for SwapReq accesses
system.cpu1.dcache.SwapReq_mshr_miss_rate::total     0.739141                       # mshr miss rate for SwapReq accesses
system.cpu1.dcache.SwapReq_avg_mshr_miss_latency::.cpu1.data 18984.544837                       # average SwapReq mshr miss latency
system.cpu1.dcache.SwapReq_avg_mshr_miss_latency::total 18984.544837                       # average SwapReq mshr miss latency
system.cpu1.dcache.tags.pwrStateResidencyTicks::UNDEFINED  42611304500                       # Cumulative time (in ticks) in various power states
system.cpu1.dcache.tags.tagsinuse           30.993855                       # Cycle average of tags in use
system.cpu1.dcache.tags.total_refs            9283263                       # Total number of references to valid blocks.
system.cpu1.dcache.tags.sampled_refs           641197                       # Sample count of references to valid blocks.
system.cpu1.dcache.tags.avg_refs            14.478020                       # Average number of references to valid blocks.
system.cpu1.dcache.tags.warmup_cycle                0                       # Cycle when the warmup percentage was hit.
system.cpu1.dcache.tags.occ_blocks::.cpu1.data    30.993855                       # Average occupied blocks per requestor
system.cpu1.dcache.tags.occ_percent::.cpu1.data     0.968558                       # Average percentage of cache occupancy
system.cpu1.dcache.tags.occ_percent::total     0.968558                       # Average percentage of cache occupancy
system.cpu1.dcache.tags.occ_task_id_blocks::1024           29                       # Occupied blocks per task id
system.cpu1.dcache.tags.age_task_id_blocks_1024::1           29                       # Occupied blocks per task id
system.cpu1.dcache.tags.occ_task_id_percent::1024     0.906250                       # Percentage of cache occupancy per task id
system.cpu1.dcache.tags.tag_accesses         24290225                       # Number of tag accesses
system.cpu1.dcache.tags.data_accesses        24290225                       # Number of data accesses
system.cpu_clk_domain.clock                       500                       # Clock period in ticks
system.tol2bus.pwrStateResidencyTicks::UNDEFINED  42611304500                       # Cumulative time (in ticks) in various power states
system.tol2bus.trans_dist::ReadResp           2630767                       # Transaction distribution
system.tol2bus.trans_dist::ReadRespWithInvalidate           20                       # Transaction distribution
system.tol2bus.trans_dist::WritebackDirty       823174                       # Transaction distribution
system.tol2bus.trans_dist::WritebackClean      2276336                       # Transaction distribution
system.tol2bus.trans_dist::CleanEvict         3692170                       # Transaction distribution
system.tol2bus.trans_dist::UpgradeReq           14804                       # Transaction distribution
system.tol2bus.trans_dist::SCUpgradeReq         22548                       # Transaction distribution
system.tol2bus.trans_dist::UpgradeResp          37352                       # Transaction distribution
system.tol2bus.trans_dist::SCUpgradeFailReq          496                       # Transaction distribution
system.tol2bus.trans_dist::UpgradeFailResp          496                       # Transaction distribution
system.tol2bus.trans_dist::ReadExReq           145047                       # Transaction distribution
system.tol2bus.trans_dist::ReadExResp          145048                       # Transaction distribution
system.tol2bus.trans_dist::ReadCleanReq        178710                       # Transaction distribution
system.tol2bus.trans_dist::ReadSharedReq      2452077                       # Transaction distribution
system.tol2bus.trans_dist::InvalidateReq          112                       # Transaction distribution
system.tol2bus.trans_dist::InvalidateResp          112                       # Transaction distribution
system.tol2bus.pkt_count_system.cpu0.icache.mem_side::system.l2.cpu_side       327024                       # Packet count per connected master and slave (bytes)
system.tol2bus.pkt_count_system.cpu0.dcache.mem_side::system.l2.cpu_side      2104798                       # Packet count per connected master and slave (bytes)
system.tol2bus.pkt_count_system.cpu1.icache.mem_side::system.l2.cpu_side        69579                       # Packet count per connected master and slave (bytes)
system.tol2bus.pkt_count_system.cpu1.dcache.mem_side::system.l2.cpu_side      1907051                       # Packet count per connected master and slave (bytes)
system.tol2bus.pkt_count_system.cpu2.icache.mem_side::system.l2.cpu_side        69963                       # Packet count per connected master and slave (bytes)
system.tol2bus.pkt_count_system.cpu2.dcache.mem_side::system.l2.cpu_side      1878156                       # Packet count per connected master and slave (bytes)
system.tol2bus.pkt_count_system.cpu3.icache.mem_side::system.l2.cpu_side        69564                       # Packet count per connected master and slave (bytes)
system.tol2bus.pkt_count_system.cpu3.dcache.mem_side::system.l2.cpu_side      1843685                       # Packet count per connected master and slave (bytes)
system.tol2bus.pkt_count::total               8269820                       # Packet count per connected master and slave (bytes)
system.tol2bus.pkt_size_system.cpu0.icache.mem_side::system.l2.cpu_side     13953024                       # Cumulative packet size per connected master and slave (bytes)
system.tol2bus.pkt_size_system.cpu0.dcache.mem_side::system.l2.cpu_side     88715456                       # Cumulative packet size per connected master and slave (bytes)
system.tol2bus.pkt_size_system.cpu1.icache.mem_side::system.l2.cpu_side      2968704                       # Cumulative packet size per connected master and slave (bytes)
system.tol2bus.pkt_size_system.cpu1.dcache.mem_side::system.l2.cpu_side     80308160                       # Cumulative packet size per connected master and slave (bytes)
system.tol2bus.pkt_size_system.cpu2.icache.mem_side::system.l2.cpu_side      2985088                       # Cumulative packet size per connected master and slave (bytes)
system.tol2bus.pkt_size_system.cpu2.dcache.mem_side::system.l2.cpu_side     79138496                       # Cumulative packet size per connected master and slave (bytes)
system.tol2bus.pkt_size_system.cpu3.icache.mem_side::system.l2.cpu_side      2968064                       # Cumulative packet size per connected master and slave (bytes)
system.tol2bus.pkt_size_system.cpu3.dcache.mem_side::system.l2.cpu_side     77686528                       # Cumulative packet size per connected master and slave (bytes)
system.tol2bus.pkt_size::total              348723520                       # Cumulative packet size per connected master and slave (bytes)
system.tol2bus.snoops                         4149449                       # Total snoops (count)
system.tol2bus.snoopTraffic                  27330304                       # Total snoop traffic (bytes)
system.tol2bus.snoop_fanout::samples          6914988                       # Request fanout histogram
system.tol2bus.snoop_fanout::mean            0.491368                       # Request fanout histogram
system.tol2bus.snoop_fanout::stdev           0.751326                       # Request fanout histogram
system.tol2bus.snoop_fanout::underflows             0      0.00%      0.00% # Request fanout histogram
system.tol2bus.snoop_fanout::0                4270519     61.76%     61.76% # Request fanout histogram
system.tol2bus.snoop_fanout::1                2171309     31.40%     93.16% # Request fanout histogram
system.tol2bus.snoop_fanout::2                 247086      3.57%     96.73% # Request fanout histogram
system.tol2bus.snoop_fanout::3                 171975      2.49%     99.22% # Request fanout histogram
system.tol2bus.snoop_fanout::4                  54099      0.78%    100.00% # Request fanout histogram
system.tol2bus.snoop_fanout::5                      0      0.00%    100.00% # Request fanout histogram
system.tol2bus.snoop_fanout::6                      0      0.00%    100.00% # Request fanout histogram
system.tol2bus.snoop_fanout::7                      0      0.00%    100.00% # Request fanout histogram
system.tol2bus.snoop_fanout::8                      0      0.00%    100.00% # Request fanout histogram
system.tol2bus.snoop_fanout::overflows              0      0.00%    100.00% # Request fanout histogram
system.tol2bus.snoop_fanout::min_value              0                       # Request fanout histogram
system.tol2bus.snoop_fanout::max_value              4                       # Request fanout histogram
system.tol2bus.snoop_fanout::total            6914988                       # Request fanout histogram
system.tol2bus.reqLayer0.occupancy         5547034732                       # Layer occupancy (ticks)
system.tol2bus.reqLayer0.utilization             13.0                       # Layer utilization (%)
system.tol2bus.respLayer5.occupancy         955842982                       # Layer occupancy (ticks)
system.tol2bus.respLayer5.utilization             2.2                       # Layer utilization (%)
system.tol2bus.respLayer4.occupancy          37937654                       # Layer occupancy (ticks)
system.tol2bus.respLayer4.utilization             0.1                       # Layer utilization (%)
system.tol2bus.respLayer7.occupancy         938473804                       # Layer occupancy (ticks)
system.tol2bus.respLayer7.utilization             2.2                       # Layer utilization (%)
system.tol2bus.respLayer6.occupancy          37633823                       # Layer occupancy (ticks)
system.tol2bus.respLayer6.utilization             0.1                       # Layer utilization (%)
system.tol2bus.respLayer1.occupancy        1067464799                       # Layer occupancy (ticks)
system.tol2bus.respLayer1.utilization             2.5                       # Layer utilization (%)
system.tol2bus.respLayer0.occupancy         164104424                       # Layer occupancy (ticks)
system.tol2bus.respLayer0.utilization             0.4                       # Layer utilization (%)
system.tol2bus.respLayer3.occupancy         971038725                       # Layer occupancy (ticks)
system.tol2bus.respLayer3.utilization             2.3                       # Layer utilization (%)
system.tol2bus.respLayer2.occupancy          37759619                       # Layer occupancy (ticks)
system.tol2bus.respLayer2.utilization             0.1                       # Layer utilization (%)

---------- End Simulation Statistics   ----------
