Redirecting stdout to /vol1/msoyturk/gem5/results/cc_sv/gowalla.el/prefetch_IndirectMemoryPrefetcher_BIPRP/output.txt
Redirecting stderr to /vol1/msoyturk/gem5/results/cc_sv/gowalla.el/prefetch_IndirectMemoryPrefetcher_BIPRP/error.txt
gem5 Simulator System.  http://gem5.org
gem5 is copyrighted software; use the --copyright option for details.

gem5 compiled Apr 26 2020 13:32:47
gem5 started Apr 29 2020 11:18:38
gem5 executing on draco, pid 15830
command line: /vol1/msoyturk/gem5/build/RISCV/gem5.fast -re --outdir=/vol1/msoyturk/gem5/results/cc_sv/gowalla.el/prefetch_IndirectMemoryPrefetcher_BIPRP --stdout-file=output.txt --stderr-file=error.txt /vol1/msoyturk/gem5/configs/example/my_se.py -c /vol1/msoyturk/gem5/gapbs/cc_sv -o '-f /vol1/msoyturk/gem5/gapbs/test/graphs/gowalla.el' --caches --l1d_size=2kB --l1i_size=2kB --cpu-type=DerivO3CPU -n 4 --mem-size=512MB --l2cache --l2_size=4kB --l2-hwp-type=IndirectMemoryPrefetcher --l2-replacement-policy=BIPRP --l1i_mshrs=4 --l1d_mshrs=4 --l2_mshrs=20 --l1i_write_buffers=8 --l1d_write_buffers=8 --l2_write_buffers=8

info: Standard input is not a terminal, disabling listeners.
Warning: l2-hwp-type is set ( IndirectMemoryPrefetcher ), but the current l2 has a default Hardware Prefetcher of type <class 'm5.params.NullSimObject'> , using the specified by the flag option.
Global frequency set at 1000000000000 ticks per second
**** REAL SIMULATION ****
Read Time:           1.72282
Build Time:          0.31659
Graph has 196591 nodes and 1900654 directed edges for degree: 9
Shiloach-Vishkin took 2 iterations
Trial Time:          0.06715
Shiloach-Vishkin took 2 iterations
Trial Time:          0.06641
Shiloach-Vishkin took 2 iterations
Trial Time:          0.06712
Shiloach-Vishkin took 2 iterations
Trial Time:          0.06714
Shiloach-Vishkin took 2 iterations
Trial Time:          0.06708
Shiloach-Vishkin took 2 iterations
Trial Time:          0.06712
Shiloach-Vishkin took 2 iterations
Trial Time:          0.06645
Shiloach-Vishkin took 2 iterations
Trial Time:          0.06660
Shiloach-Vishkin took 2 iterations
Trial Time:          0.06674
Shiloach-Vishkin took 2 iterations
Trial Time:          0.06679
Shiloach-Vishkin took 2 iterations
Trial Time:          0.06682
Shiloach-Vishkin took 2 iterations
Trial Time:          0.06692
Shiloach-Vishkin took 2 iterations
Trial Time:          0.06691
Shiloach-Vishkin took 2 iterations
Trial Time:          0.06698
Shiloach-Vishkin took 2 iterations
Trial Time:          0.06699
Shiloach-Vishkin took 2 iterations
Trial Time:          0.06696
Average Time:        0.06689
Exiting @ tick 3232047907000 because exiting with last active thread context
