
---------- Begin Simulation Statistics ----------
final_tick                               2146532206000                       # Number of ticks from beginning of simulation (restored from checkpoints and never reset)
host_inst_rate                                  61209                       # Simulator instruction rate (inst/s)
host_mem_usage                                 702404                       # Number of bytes of host memory used
host_op_rate                                    61407                       # Simulator op (including micro ops) rate (op/s)
host_seconds                                 38471.81                       # Real time elapsed on the host
host_tick_rate                               55794938                       # Simulator tick rate (ticks/s)
sim_freq                                 1000000000000                       # Frequency of simulated ticks
sim_insts                                  2354811298                       # Number of instructions simulated
sim_ops                                    2362420212                       # Number of ops (including micro ops) simulated
sim_seconds                                  2.146532                       # Number of seconds simulated
sim_ticks                                2146532206000                       # Number of ticks simulated
system.cpu0.branchPred.BTBCorrect                   0                       # Number of correct BTB predictions (this stat may not work properly.
system.cpu0.branchPred.BTBHitPct            87.280931                       # BTB Hit Percentage
system.cpu0.branchPred.BTBHits              292403057                       # Number of BTB hits
system.cpu0.branchPred.BTBLookups           335013679                       # Number of BTB lookups
system.cpu0.branchPred.RASInCorrect                 0                       # Number of incorrect RAS predictions.
system.cpu0.branchPred.condIncorrect         19446095                       # Number of conditional branches incorrect
system.cpu0.branchPred.condPredicted        457533200                       # Number of conditional branches predicted
system.cpu0.branchPred.indirectHits          38770639                       # Number of indirect target hits.
system.cpu0.branchPred.indirectLookups       39264732                       # Number of indirect predictor lookups.
system.cpu0.branchPred.indirectMisses          494093                       # Number of indirect misses.
system.cpu0.branchPred.lookups              582126346                       # Number of BP lookups
system.cpu0.branchPred.usedRAS                      0                       # Number of times the RAS was used to get a target.
system.cpu0.branchPredindirectMispredicted      3961240                       # Number of mispredicted indirect branches.
system.cpu0.commit.amos                       3801870                       # Number of atomic instructions committed
system.cpu0.commit.branchMispredicts         13714513                       # The number of times a branch was mispredicted
system.cpu0.commit.branches                 555018503                       # Number of branches committed
system.cpu0.commit.bw_lim_events             61376755                       # number cycles where commit BW limit reached
system.cpu0.commit.commitNonSpecStalls       11419523                       # The number of times commit has been forced to stall to communicate backwards
system.cpu0.commit.commitSquashedInsts      102544275                       # The number of squashed insts skipped by commit
system.cpu0.commit.committedInsts          2224744575                       # Number of instructions committed
system.cpu0.commit.committedOps            2228551738                       # Number of ops (including micro ops) committed
system.cpu0.commit.committed_per_cycle::samples   3977856957                       # Number of insts commited each cycle
system.cpu0.commit.committed_per_cycle::mean     0.560239                       # Number of insts commited each cycle
system.cpu0.commit.committed_per_cycle::stdev     1.312571                       # Number of insts commited each cycle
system.cpu0.commit.committed_per_cycle::underflows            0      0.00%      0.00% # Number of insts commited each cycle
system.cpu0.commit.committed_per_cycle::0   2873378644     72.23%     72.23% # Number of insts commited each cycle
system.cpu0.commit.committed_per_cycle::1    681406214     17.13%     89.36% # Number of insts commited each cycle
system.cpu0.commit.committed_per_cycle::2    145825759      3.67%     93.03% # Number of insts commited each cycle
system.cpu0.commit.committed_per_cycle::3    146569554      3.68%     96.71% # Number of insts commited each cycle
system.cpu0.commit.committed_per_cycle::4     41110286      1.03%     97.75% # Number of insts commited each cycle
system.cpu0.commit.committed_per_cycle::5     15852887      0.40%     98.15% # Number of insts commited each cycle
system.cpu0.commit.committed_per_cycle::6      5292281      0.13%     98.28% # Number of insts commited each cycle
system.cpu0.commit.committed_per_cycle::7      7044577      0.18%     98.46% # Number of insts commited each cycle
system.cpu0.commit.committed_per_cycle::8     61376755      1.54%    100.00% # Number of insts commited each cycle
system.cpu0.commit.committed_per_cycle::overflows            0      0.00%    100.00% # Number of insts commited each cycle
system.cpu0.commit.committed_per_cycle::min_value            0                       # Number of insts commited each cycle
system.cpu0.commit.committed_per_cycle::max_value            8                       # Number of insts commited each cycle
system.cpu0.commit.committed_per_cycle::total   3977856957                       # Number of insts commited each cycle
system.cpu0.commit.fp_insts                        46                       # Number of committed floating point instructions.
system.cpu0.commit.function_calls            44162563                       # Number of function calls committed.
system.cpu0.commit.int_insts               2150852064                       # Number of committed integer instructions.
system.cpu0.commit.loads                    691540781                       # Number of loads committed
system.cpu0.commit.membars                    7608903                       # Number of memory barriers committed
system.cpu0.commit.op_class_0::No_OpClass      7608909      0.34%      0.34% # Class of committed instruction
system.cpu0.commit.op_class_0::IntAlu      1238734608     55.58%     55.93% # Class of committed instruction
system.cpu0.commit.op_class_0::IntMult       18316825      0.82%     56.75% # Class of committed instruction
system.cpu0.commit.op_class_0::IntDiv         3801411      0.17%     56.92% # Class of committed instruction
system.cpu0.commit.op_class_0::FloatAdd             0      0.00%     56.92% # Class of committed instruction
system.cpu0.commit.op_class_0::FloatCmp             4      0.00%     56.92% # Class of committed instruction
system.cpu0.commit.op_class_0::FloatCvt            12      0.00%     56.92% # Class of committed instruction
system.cpu0.commit.op_class_0::FloatMult            0      0.00%     56.92% # Class of committed instruction
system.cpu0.commit.op_class_0::FloatMultAcc            0      0.00%     56.92% # Class of committed instruction
system.cpu0.commit.op_class_0::FloatDiv             2      0.00%     56.92% # Class of committed instruction
system.cpu0.commit.op_class_0::FloatMisc            4      0.00%     56.92% # Class of committed instruction
system.cpu0.commit.op_class_0::FloatSqrt            0      0.00%     56.92% # Class of committed instruction
system.cpu0.commit.op_class_0::SimdAdd              0      0.00%     56.92% # Class of committed instruction
system.cpu0.commit.op_class_0::SimdAddAcc            0      0.00%     56.92% # Class of committed instruction
system.cpu0.commit.op_class_0::SimdAlu              0      0.00%     56.92% # Class of committed instruction
system.cpu0.commit.op_class_0::SimdCmp              0      0.00%     56.92% # Class of committed instruction
system.cpu0.commit.op_class_0::SimdCvt              0      0.00%     56.92% # Class of committed instruction
system.cpu0.commit.op_class_0::SimdMisc             0      0.00%     56.92% # Class of committed instruction
system.cpu0.commit.op_class_0::SimdMult             0      0.00%     56.92% # Class of committed instruction
system.cpu0.commit.op_class_0::SimdMultAcc            0      0.00%     56.92% # Class of committed instruction
system.cpu0.commit.op_class_0::SimdShift            0      0.00%     56.92% # Class of committed instruction
system.cpu0.commit.op_class_0::SimdShiftAcc            0      0.00%     56.92% # Class of committed instruction
system.cpu0.commit.op_class_0::SimdDiv              0      0.00%     56.92% # Class of committed instruction
system.cpu0.commit.op_class_0::SimdSqrt             0      0.00%     56.92% # Class of committed instruction
system.cpu0.commit.op_class_0::SimdFloatAdd            0      0.00%     56.92% # Class of committed instruction
system.cpu0.commit.op_class_0::SimdFloatAlu            0      0.00%     56.92% # Class of committed instruction
system.cpu0.commit.op_class_0::SimdFloatCmp            0      0.00%     56.92% # Class of committed instruction
system.cpu0.commit.op_class_0::SimdFloatCvt            0      0.00%     56.92% # Class of committed instruction
system.cpu0.commit.op_class_0::SimdFloatDiv            0      0.00%     56.92% # Class of committed instruction
system.cpu0.commit.op_class_0::SimdFloatMisc            0      0.00%     56.92% # Class of committed instruction
system.cpu0.commit.op_class_0::SimdFloatMult            0      0.00%     56.92% # Class of committed instruction
system.cpu0.commit.op_class_0::SimdFloatMultAcc            0      0.00%     56.92% # Class of committed instruction
system.cpu0.commit.op_class_0::SimdFloatSqrt            0      0.00%     56.92% # Class of committed instruction
system.cpu0.commit.op_class_0::SimdReduceAdd            0      0.00%     56.92% # Class of committed instruction
system.cpu0.commit.op_class_0::SimdReduceAlu            0      0.00%     56.92% # Class of committed instruction
system.cpu0.commit.op_class_0::SimdReduceCmp            0      0.00%     56.92% # Class of committed instruction
system.cpu0.commit.op_class_0::SimdFloatReduceAdd            0      0.00%     56.92% # Class of committed instruction
system.cpu0.commit.op_class_0::SimdFloatReduceCmp            0      0.00%     56.92% # Class of committed instruction
system.cpu0.commit.op_class_0::SimdAes              0      0.00%     56.92% # Class of committed instruction
system.cpu0.commit.op_class_0::SimdAesMix            0      0.00%     56.92% # Class of committed instruction
system.cpu0.commit.op_class_0::SimdSha1Hash            0      0.00%     56.92% # Class of committed instruction
system.cpu0.commit.op_class_0::SimdSha1Hash2            0      0.00%     56.92% # Class of committed instruction
system.cpu0.commit.op_class_0::SimdSha256Hash            0      0.00%     56.92% # Class of committed instruction
system.cpu0.commit.op_class_0::SimdSha256Hash2            0      0.00%     56.92% # Class of committed instruction
system.cpu0.commit.op_class_0::SimdShaSigma2            0      0.00%     56.92% # Class of committed instruction
system.cpu0.commit.op_class_0::SimdShaSigma3            0      0.00%     56.92% # Class of committed instruction
system.cpu0.commit.op_class_0::SimdPredAlu            0      0.00%     56.92% # Class of committed instruction
system.cpu0.commit.op_class_0::MemRead      695342643     31.20%     88.12% # Class of committed instruction
system.cpu0.commit.op_class_0::MemWrite     264747296     11.88%    100.00% # Class of committed instruction
system.cpu0.commit.op_class_0::FloatMemRead            8      0.00%    100.00% # Class of committed instruction
system.cpu0.commit.op_class_0::FloatMemWrite           16      0.00%    100.00% # Class of committed instruction
system.cpu0.commit.op_class_0::IprAccess            0      0.00%    100.00% # Class of committed instruction
system.cpu0.commit.op_class_0::InstPrefetch            0      0.00%    100.00% # Class of committed instruction
system.cpu0.commit.op_class_0::total       2228551738                       # Class of committed instruction
system.cpu0.commit.refs                     960089963                       # Number of memory references committed
system.cpu0.commit.swp_count                        0                       # Number of s/w prefetches committed
system.cpu0.commit.vec_insts                        0                       # Number of committed Vector instructions.
system.cpu0.committedInsts                 2224744575                       # Number of Instructions Simulated
system.cpu0.committedOps                   2228551738                       # Number of Ops (including micro ops) Simulated
system.cpu0.cpi                              1.926535                       # CPI: Cycles Per Instruction
system.cpu0.cpi_total                        1.926535                       # CPI: Total CPI of All Threads
system.cpu0.decode.BlockedCycles            663308551                       # Number of cycles decode is blocked
system.cpu0.decode.BranchMispred              5749869                       # Number of times decode detected a branch misprediction
system.cpu0.decode.BranchResolved           290984076                       # Number of times decode resolved a branch
system.cpu0.decode.DecodedInsts            2363926448                       # Number of instructions handled by decode
system.cpu0.decode.IdleCycles              1668479975                       # Number of cycles decode is idle
system.cpu0.decode.RunCycles               1643988921                       # Number of cycles decode is running
system.cpu0.decode.SquashCycles              13736157                       # Number of cycles decode is squashing
system.cpu0.decode.SquashedInsts             10708699                       # Number of squashed instructions handled by decode
system.cpu0.decode.UnblockCycles             10303190                       # Number of cycles decode is unblocking
system.cpu0.dtb.accesses                            0                       # DTB accesses
system.cpu0.dtb.hits                                0                       # DTB hits
system.cpu0.dtb.misses                              0                       # DTB misses
system.cpu0.dtb.read_accesses                       0                       # DTB read accesses
system.cpu0.dtb.read_hits                           0                       # DTB read hits
system.cpu0.dtb.read_misses                         0                       # DTB read misses
system.cpu0.dtb.write_accesses                      0                       # DTB write accesses
system.cpu0.dtb.write_hits                          0                       # DTB write hits
system.cpu0.dtb.write_misses                        0                       # DTB write misses
system.cpu0.fetch.Branches                  582126346                       # Number of branches that fetch encountered
system.cpu0.fetch.CacheLines                414007938                       # Number of cache lines fetched
system.cpu0.fetch.Cycles                   2324450284                       # Number of cycles fetch has run and was not squashing or blocked
system.cpu0.fetch.IcacheSquashes              8858835                       # Number of outstanding Icache misses that were squashed
system.cpu0.fetch.IcacheWaitRetryStallCycles          185                       # Number of stall cycles due to full MSHR
system.cpu0.fetch.Insts                    2384819863                       # Number of instructions fetch has processed
system.cpu0.fetch.MiscStallCycles                  47                       # Number of cycles fetch has spent waiting on interrupts, or bad addresses, or out of MSHRs
system.cpu0.fetch.PendingTrapStallCycles          185                       # Number of stall cycles due to pending traps
system.cpu0.fetch.SquashCycles               38935532                       # Number of cycles fetch has spent squashing
system.cpu0.fetch.branchRate                 0.135819                       # Number of branch fetches per cycle
system.cpu0.fetch.icacheStallCycles        1655898327                       # Number of cycles fetch is stalled on an Icache miss
system.cpu0.fetch.predictedBranches         331173696                       # Number of branches that fetch has predicted taken
system.cpu0.fetch.rate                       0.556415                       # Number of inst fetches per cycle
system.cpu0.fetch.rateDist::samples        3999816794                       # Number of instructions fetched each cycle (Total)
system.cpu0.fetch.rateDist::mean             0.597184                       # Number of instructions fetched each cycle (Total)
system.cpu0.fetch.rateDist::stdev            0.879399                       # Number of instructions fetched each cycle (Total)
system.cpu0.fetch.rateDist::underflows              0      0.00%      0.00% # Number of instructions fetched each cycle (Total)
system.cpu0.fetch.rateDist::0              2293815526     57.35%     57.35% # Number of instructions fetched each cycle (Total)
system.cpu0.fetch.rateDist::1              1265980024     31.65%     89.00% # Number of instructions fetched each cycle (Total)
system.cpu0.fetch.rateDist::2               266171205      6.65%     95.65% # Number of instructions fetched each cycle (Total)
system.cpu0.fetch.rateDist::3               142006965      3.55%     99.20% # Number of instructions fetched each cycle (Total)
system.cpu0.fetch.rateDist::4                14319542      0.36%     99.56% # Number of instructions fetched each cycle (Total)
system.cpu0.fetch.rateDist::5                 9561333      0.24%     99.80% # Number of instructions fetched each cycle (Total)
system.cpu0.fetch.rateDist::6                  344088      0.01%     99.81% # Number of instructions fetched each cycle (Total)
system.cpu0.fetch.rateDist::7                 3809410      0.10%     99.90% # Number of instructions fetched each cycle (Total)
system.cpu0.fetch.rateDist::8                 3808701      0.10%    100.00% # Number of instructions fetched each cycle (Total)
system.cpu0.fetch.rateDist::overflows               0      0.00%    100.00% # Number of instructions fetched each cycle (Total)
system.cpu0.fetch.rateDist::min_value               0                       # Number of instructions fetched each cycle (Total)
system.cpu0.fetch.rateDist::max_value               8                       # Number of instructions fetched each cycle (Total)
system.cpu0.fetch.rateDist::total          3999816794                       # Number of instructions fetched each cycle (Total)
system.cpu0.fp_regfile_reads                       40                       # number of floating regfile reads
system.cpu0.fp_regfile_writes                      23                       # number of floating regfile writes
system.cpu0.idleCycles                      286230612                       # Total number of cycles that the CPU has spent unscheduled due to idling
system.cpu0.iew.branchMispredicts            13899175                       # Number of branch mispredicts detected at execute
system.cpu0.iew.exec_branches               565978993                       # Number of branches executed
system.cpu0.iew.exec_nop                            0                       # number of nop insts executed
system.cpu0.iew.exec_rate                    0.539604                       # Inst execution rate
system.cpu0.iew.exec_refs                  1008294321                       # number of memory reference insts executed
system.cpu0.iew.exec_stores                 274293228                       # Number of stores executed
system.cpu0.iew.exec_swp                            0                       # number of swp insts executed
system.cpu0.iew.iewBlockCycles              554276330                       # Number of cycles IEW is blocking
system.cpu0.iew.iewDispLoadInsts            732725501                       # Number of dispatched load instructions
system.cpu0.iew.iewDispNonSpecInsts           3811053                       # Number of dispatched non-speculative instructions
system.cpu0.iew.iewDispSquashedInsts          4370667                       # Number of squashed instructions skipped by dispatch
system.cpu0.iew.iewDispStoreInsts           278826217                       # Number of dispatched store instructions
system.cpu0.iew.iewDispatchedInsts         2331053760                       # Number of instructions dispatched to IQ
system.cpu0.iew.iewExecLoadInsts            734001093                       # Number of load instructions executed
system.cpu0.iew.iewExecSquashedInsts         12941273                       # Number of squashed instructions skipped in execute
system.cpu0.iew.iewExecutedInsts           2312769185                       # Number of executed instructions
system.cpu0.iew.iewIQFullEvents               2680350                       # Number of times the IQ has become full, causing a stall
system.cpu0.iew.iewIdleCycles                       0                       # Number of cycles IEW is idle
system.cpu0.iew.iewLSQFullEvents              7865540                       # Number of times the LSQ has become full, causing a stall
system.cpu0.iew.iewSquashCycles              13736157                       # Number of cycles IEW is squashing
system.cpu0.iew.iewUnblockCycles             15076254                       # Number of cycles IEW is unblocking
system.cpu0.iew.lsq.thread0.blockedLoads            0                       # Number of blocked loads due to partial load-store forwarding
system.cpu0.iew.lsq.thread0.cacheBlocked       190204                       # Number of times an access to memory failed due to the cache being blocked
system.cpu0.iew.lsq.thread0.forwLoads        33641171                       # Number of loads that had data forwarded from stores
system.cpu0.iew.lsq.thread0.ignoredResponses        74385                       # Number of memory responses ignored because the instruction is squashed
system.cpu0.iew.lsq.thread0.invAddrLoads            0                       # Number of loads ignored due to an invalid address
system.cpu0.iew.lsq.thread0.invAddrSwpfs            0                       # Number of software prefetches ignored due to an invalid address
system.cpu0.iew.lsq.thread0.memOrderViolation        23787                       # Number of memory ordering violations
system.cpu0.iew.lsq.thread0.rescheduledLoads      8652528                       # Number of loads that were rescheduled
system.cpu0.iew.lsq.thread0.squashedLoads     41184720                       # Number of loads squashed
system.cpu0.iew.lsq.thread0.squashedStores     10277035                       # Number of stores squashed
system.cpu0.iew.memOrderViolationEvents         23787                       # Number of memory order violations
system.cpu0.iew.predictedNotTakenIncorrect      1959256                       # Number of branches that were predicted not taken incorrectly
system.cpu0.iew.predictedTakenIncorrect      11939919                       # Number of branches that were predicted taken incorrectly
system.cpu0.iew.wb_consumers                944132830                       # num instructions consuming a value
system.cpu0.iew.wb_count                   2293125767                       # cumulative count of insts written-back
system.cpu0.iew.wb_fanout                    0.896692                       # average fanout of values written-back
system.cpu0.iew.wb_producers                846596812                       # num instructions producing a value
system.cpu0.iew.wb_rate                      0.535021                       # insts written-back per cycle
system.cpu0.iew.wb_sent                    2293264995                       # cumulative count of insts sent to commit
system.cpu0.int_regfile_reads              2823300048                       # number of integer regfile reads
system.cpu0.int_regfile_writes             1469512548                       # number of integer regfile writes
system.cpu0.ipc                              0.519067                       # IPC: Instructions Per Cycle
system.cpu0.ipc_total                        0.519067                       # IPC: Total IPC of All Threads
system.cpu0.iq.FU_type_0::No_OpClass          7611885      0.33%      0.33% # Type of FU issued
system.cpu0.iq.FU_type_0::IntAlu           1280257233     55.05%     55.38% # Type of FU issued
system.cpu0.iq.FU_type_0::IntMult            18328512      0.79%     56.16% # Type of FU issued
system.cpu0.iq.FU_type_0::IntDiv              3802470      0.16%     56.33% # Type of FU issued
system.cpu0.iq.FU_type_0::FloatAdd                  0      0.00%     56.33% # Type of FU issued
system.cpu0.iq.FU_type_0::FloatCmp                  4      0.00%     56.33% # Type of FU issued
system.cpu0.iq.FU_type_0::FloatCvt                 12      0.00%     56.33% # Type of FU issued
system.cpu0.iq.FU_type_0::FloatMult                 0      0.00%     56.33% # Type of FU issued
system.cpu0.iq.FU_type_0::FloatMultAcc              0      0.00%     56.33% # Type of FU issued
system.cpu0.iq.FU_type_0::FloatDiv                  2      0.00%     56.33% # Type of FU issued
system.cpu0.iq.FU_type_0::FloatMisc                 4      0.00%     56.33% # Type of FU issued
system.cpu0.iq.FU_type_0::FloatSqrt                 0      0.00%     56.33% # Type of FU issued
system.cpu0.iq.FU_type_0::SimdAdd                   0      0.00%     56.33% # Type of FU issued
system.cpu0.iq.FU_type_0::SimdAddAcc                0      0.00%     56.33% # Type of FU issued
system.cpu0.iq.FU_type_0::SimdAlu                   0      0.00%     56.33% # Type of FU issued
system.cpu0.iq.FU_type_0::SimdCmp                   0      0.00%     56.33% # Type of FU issued
system.cpu0.iq.FU_type_0::SimdCvt                   0      0.00%     56.33% # Type of FU issued
system.cpu0.iq.FU_type_0::SimdMisc                  0      0.00%     56.33% # Type of FU issued
system.cpu0.iq.FU_type_0::SimdMult                  0      0.00%     56.33% # Type of FU issued
system.cpu0.iq.FU_type_0::SimdMultAcc               0      0.00%     56.33% # Type of FU issued
system.cpu0.iq.FU_type_0::SimdShift                 0      0.00%     56.33% # Type of FU issued
system.cpu0.iq.FU_type_0::SimdShiftAcc              0      0.00%     56.33% # Type of FU issued
system.cpu0.iq.FU_type_0::SimdDiv                   0      0.00%     56.33% # Type of FU issued
system.cpu0.iq.FU_type_0::SimdSqrt                  0      0.00%     56.33% # Type of FU issued
system.cpu0.iq.FU_type_0::SimdFloatAdd              0      0.00%     56.33% # Type of FU issued
system.cpu0.iq.FU_type_0::SimdFloatAlu              0      0.00%     56.33% # Type of FU issued
system.cpu0.iq.FU_type_0::SimdFloatCmp              0      0.00%     56.33% # Type of FU issued
system.cpu0.iq.FU_type_0::SimdFloatCvt              0      0.00%     56.33% # Type of FU issued
system.cpu0.iq.FU_type_0::SimdFloatDiv              0      0.00%     56.33% # Type of FU issued
system.cpu0.iq.FU_type_0::SimdFloatMisc             0      0.00%     56.33% # Type of FU issued
system.cpu0.iq.FU_type_0::SimdFloatMult             0      0.00%     56.33% # Type of FU issued
system.cpu0.iq.FU_type_0::SimdFloatMultAcc            0      0.00%     56.33% # Type of FU issued
system.cpu0.iq.FU_type_0::SimdFloatSqrt             0      0.00%     56.33% # Type of FU issued
system.cpu0.iq.FU_type_0::SimdReduceAdd             0      0.00%     56.33% # Type of FU issued
system.cpu0.iq.FU_type_0::SimdReduceAlu             0      0.00%     56.33% # Type of FU issued
system.cpu0.iq.FU_type_0::SimdReduceCmp             0      0.00%     56.33% # Type of FU issued
system.cpu0.iq.FU_type_0::SimdFloatReduceAdd            0      0.00%     56.33% # Type of FU issued
system.cpu0.iq.FU_type_0::SimdFloatReduceCmp            0      0.00%     56.33% # Type of FU issued
system.cpu0.iq.FU_type_0::SimdAes                   0      0.00%     56.33% # Type of FU issued
system.cpu0.iq.FU_type_0::SimdAesMix                0      0.00%     56.33% # Type of FU issued
system.cpu0.iq.FU_type_0::SimdSha1Hash              0      0.00%     56.33% # Type of FU issued
system.cpu0.iq.FU_type_0::SimdSha1Hash2             0      0.00%     56.33% # Type of FU issued
system.cpu0.iq.FU_type_0::SimdSha256Hash            0      0.00%     56.33% # Type of FU issued
system.cpu0.iq.FU_type_0::SimdSha256Hash2            0      0.00%     56.33% # Type of FU issued
system.cpu0.iq.FU_type_0::SimdShaSigma2             0      0.00%     56.33% # Type of FU issued
system.cpu0.iq.FU_type_0::SimdShaSigma3             0      0.00%     56.33% # Type of FU issued
system.cpu0.iq.FU_type_0::SimdPredAlu               0      0.00%     56.33% # Type of FU issued
system.cpu0.iq.FU_type_0::MemRead           741975184     31.90%     88.23% # Type of FU issued
system.cpu0.iq.FU_type_0::MemWrite          273735127     11.77%    100.00% # Type of FU issued
system.cpu0.iq.FU_type_0::FloatMemRead             10      0.00%    100.00% # Type of FU issued
system.cpu0.iq.FU_type_0::FloatMemWrite            16      0.00%    100.00% # Type of FU issued
system.cpu0.iq.FU_type_0::IprAccess                 0      0.00%    100.00% # Type of FU issued
system.cpu0.iq.FU_type_0::InstPrefetch              0      0.00%    100.00% # Type of FU issued
system.cpu0.iq.FU_type_0::total            2325710459                       # Type of FU issued
system.cpu0.iq.fp_alu_accesses                     51                       # Number of floating point alu accesses
system.cpu0.iq.fp_inst_queue_reads                 99                       # Number of floating instruction queue reads
system.cpu0.iq.fp_inst_queue_wakeup_accesses           47                       # Number of floating instruction queue wakeup accesses
system.cpu0.iq.fp_inst_queue_writes               880                       # Number of floating instruction queue writes
system.cpu0.iq.fu_busy_cnt                    4462110                       # FU busy when requested
system.cpu0.iq.fu_busy_rate                  0.001919                       # FU busy rate (busy events/executed inst)
system.cpu0.iq.fu_full::No_OpClass                  0      0.00%      0.00% # attempts to use FU when none available
system.cpu0.iq.fu_full::IntAlu                 770784     17.27%     17.27% # attempts to use FU when none available
system.cpu0.iq.fu_full::IntMult                     0      0.00%     17.27% # attempts to use FU when none available
system.cpu0.iq.fu_full::IntDiv                      0      0.00%     17.27% # attempts to use FU when none available
system.cpu0.iq.fu_full::FloatAdd                    0      0.00%     17.27% # attempts to use FU when none available
system.cpu0.iq.fu_full::FloatCmp                    0      0.00%     17.27% # attempts to use FU when none available
system.cpu0.iq.fu_full::FloatCvt                    0      0.00%     17.27% # attempts to use FU when none available
system.cpu0.iq.fu_full::FloatMult                   0      0.00%     17.27% # attempts to use FU when none available
system.cpu0.iq.fu_full::FloatMultAcc                0      0.00%     17.27% # attempts to use FU when none available
system.cpu0.iq.fu_full::FloatDiv                    0      0.00%     17.27% # attempts to use FU when none available
system.cpu0.iq.fu_full::FloatMisc                   0      0.00%     17.27% # attempts to use FU when none available
system.cpu0.iq.fu_full::FloatSqrt                   0      0.00%     17.27% # attempts to use FU when none available
system.cpu0.iq.fu_full::SimdAdd                     0      0.00%     17.27% # attempts to use FU when none available
system.cpu0.iq.fu_full::SimdAddAcc                  0      0.00%     17.27% # attempts to use FU when none available
system.cpu0.iq.fu_full::SimdAlu                     0      0.00%     17.27% # attempts to use FU when none available
system.cpu0.iq.fu_full::SimdCmp                     0      0.00%     17.27% # attempts to use FU when none available
system.cpu0.iq.fu_full::SimdCvt                     0      0.00%     17.27% # attempts to use FU when none available
system.cpu0.iq.fu_full::SimdMisc                    0      0.00%     17.27% # attempts to use FU when none available
system.cpu0.iq.fu_full::SimdMult                    0      0.00%     17.27% # attempts to use FU when none available
system.cpu0.iq.fu_full::SimdMultAcc                 0      0.00%     17.27% # attempts to use FU when none available
system.cpu0.iq.fu_full::SimdShift                   0      0.00%     17.27% # attempts to use FU when none available
system.cpu0.iq.fu_full::SimdShiftAcc                0      0.00%     17.27% # attempts to use FU when none available
system.cpu0.iq.fu_full::SimdDiv                     0      0.00%     17.27% # attempts to use FU when none available
system.cpu0.iq.fu_full::SimdSqrt                    0      0.00%     17.27% # attempts to use FU when none available
system.cpu0.iq.fu_full::SimdFloatAdd                0      0.00%     17.27% # attempts to use FU when none available
system.cpu0.iq.fu_full::SimdFloatAlu                0      0.00%     17.27% # attempts to use FU when none available
system.cpu0.iq.fu_full::SimdFloatCmp                0      0.00%     17.27% # attempts to use FU when none available
system.cpu0.iq.fu_full::SimdFloatCvt                0      0.00%     17.27% # attempts to use FU when none available
system.cpu0.iq.fu_full::SimdFloatDiv                0      0.00%     17.27% # attempts to use FU when none available
system.cpu0.iq.fu_full::SimdFloatMisc               0      0.00%     17.27% # attempts to use FU when none available
system.cpu0.iq.fu_full::SimdFloatMult               0      0.00%     17.27% # attempts to use FU when none available
system.cpu0.iq.fu_full::SimdFloatMultAcc            0      0.00%     17.27% # attempts to use FU when none available
system.cpu0.iq.fu_full::SimdFloatSqrt               0      0.00%     17.27% # attempts to use FU when none available
system.cpu0.iq.fu_full::SimdReduceAdd               0      0.00%     17.27% # attempts to use FU when none available
system.cpu0.iq.fu_full::SimdReduceAlu               0      0.00%     17.27% # attempts to use FU when none available
system.cpu0.iq.fu_full::SimdReduceCmp               0      0.00%     17.27% # attempts to use FU when none available
system.cpu0.iq.fu_full::SimdFloatReduceAdd            0      0.00%     17.27% # attempts to use FU when none available
system.cpu0.iq.fu_full::SimdFloatReduceCmp            0      0.00%     17.27% # attempts to use FU when none available
system.cpu0.iq.fu_full::SimdAes                     0      0.00%     17.27% # attempts to use FU when none available
system.cpu0.iq.fu_full::SimdAesMix                  0      0.00%     17.27% # attempts to use FU when none available
system.cpu0.iq.fu_full::SimdSha1Hash                0      0.00%     17.27% # attempts to use FU when none available
system.cpu0.iq.fu_full::SimdSha1Hash2               0      0.00%     17.27% # attempts to use FU when none available
system.cpu0.iq.fu_full::SimdSha256Hash              0      0.00%     17.27% # attempts to use FU when none available
system.cpu0.iq.fu_full::SimdSha256Hash2             0      0.00%     17.27% # attempts to use FU when none available
system.cpu0.iq.fu_full::SimdShaSigma2               0      0.00%     17.27% # attempts to use FU when none available
system.cpu0.iq.fu_full::SimdShaSigma3               0      0.00%     17.27% # attempts to use FU when none available
system.cpu0.iq.fu_full::SimdPredAlu                 0      0.00%     17.27% # attempts to use FU when none available
system.cpu0.iq.fu_full::MemRead               3292434     73.79%     91.06% # attempts to use FU when none available
system.cpu0.iq.fu_full::MemWrite               398889      8.94%    100.00% # attempts to use FU when none available
system.cpu0.iq.fu_full::FloatMemRead                1      0.00%    100.00% # attempts to use FU when none available
system.cpu0.iq.fu_full::FloatMemWrite               2      0.00%    100.00% # attempts to use FU when none available
system.cpu0.iq.fu_full::IprAccess                   0      0.00%    100.00% # attempts to use FU when none available
system.cpu0.iq.fu_full::InstPrefetch                0      0.00%    100.00% # attempts to use FU when none available
system.cpu0.iq.int_alu_accesses            2322560633                       # Number of integer alu accesses
system.cpu0.iq.int_inst_queue_reads        8655958243                       # Number of integer instruction queue reads
system.cpu0.iq.int_inst_queue_wakeup_accesses   2293125720                       # Number of integer instruction queue wakeup accesses
system.cpu0.iq.int_inst_queue_writes       2433577459                       # Number of integer instruction queue writes
system.cpu0.iq.iqInstsAdded                2319633185                       # Number of instructions added to the IQ (excludes non-spec)
system.cpu0.iq.iqInstsIssued               2325710459                       # Number of instructions issued
system.cpu0.iq.iqNonSpecInstsAdded           11420575                       # Number of non-speculative instructions added to the IQ
system.cpu0.iq.iqSquashedInstsExamined      102502018                       # Number of squashed instructions iterated over during squash; mainly for profiling
system.cpu0.iq.iqSquashedInstsIssued           258521                       # Number of squashed instructions issued
system.cpu0.iq.iqSquashedNonSpecRemoved          1052                       # Number of squashed non-spec instructions that were removed
system.cpu0.iq.iqSquashedOperandsExamined     41606059                       # Number of squashed operands that are examined and possibly removed from graph
system.cpu0.iq.issued_per_cycle::samples   3999816794                       # Number of insts issued each cycle
system.cpu0.iq.issued_per_cycle::mean        0.581454                       # Number of insts issued each cycle
system.cpu0.iq.issued_per_cycle::stdev       0.796959                       # Number of insts issued each cycle
system.cpu0.iq.issued_per_cycle::underflows            0      0.00%      0.00% # Number of insts issued each cycle
system.cpu0.iq.issued_per_cycle::0         2299679819     57.49%     57.49% # Number of insts issued each cycle
system.cpu0.iq.issued_per_cycle::1         1188762112     29.72%     87.22% # Number of insts issued each cycle
system.cpu0.iq.issued_per_cycle::2          425936360     10.65%     97.86% # Number of insts issued each cycle
system.cpu0.iq.issued_per_cycle::3           67093931      1.68%     99.54% # Number of insts issued each cycle
system.cpu0.iq.issued_per_cycle::4           11273606      0.28%     99.82% # Number of insts issued each cycle
system.cpu0.iq.issued_per_cycle::5            4719984      0.12%     99.94% # Number of insts issued each cycle
system.cpu0.iq.issued_per_cycle::6            1594004      0.04%     99.98% # Number of insts issued each cycle
system.cpu0.iq.issued_per_cycle::7             520358      0.01%     99.99% # Number of insts issued each cycle
system.cpu0.iq.issued_per_cycle::8             236620      0.01%    100.00% # Number of insts issued each cycle
system.cpu0.iq.issued_per_cycle::overflows            0      0.00%    100.00% # Number of insts issued each cycle
system.cpu0.iq.issued_per_cycle::min_value            0                       # Number of insts issued each cycle
system.cpu0.iq.issued_per_cycle::max_value            8                       # Number of insts issued each cycle
system.cpu0.iq.issued_per_cycle::total     3999816794                       # Number of insts issued each cycle
system.cpu0.iq.rate                          0.542624                       # Inst issue rate
system.cpu0.iq.vec_alu_accesses                     0                       # Number of vector alu accesses
system.cpu0.iq.vec_inst_queue_reads                 0                       # Number of vector instruction queue reads
system.cpu0.iq.vec_inst_queue_wakeup_accesses            0                       # Number of vector instruction queue wakeup accesses
system.cpu0.iq.vec_inst_queue_writes                0                       # Number of vector instruction queue writes
system.cpu0.itb.accesses                            0                       # DTB accesses
system.cpu0.itb.hits                                0                       # DTB hits
system.cpu0.itb.misses                              0                       # DTB misses
system.cpu0.itb.read_accesses                       0                       # DTB read accesses
system.cpu0.itb.read_hits                           0                       # DTB read hits
system.cpu0.itb.read_misses                         0                       # DTB read misses
system.cpu0.itb.write_accesses                      0                       # DTB write accesses
system.cpu0.itb.write_hits                          0                       # DTB write hits
system.cpu0.itb.write_misses                        0                       # DTB write misses
system.cpu0.memDep0.conflictingLoads         35352455                       # Number of conflicting loads.
system.cpu0.memDep0.conflictingStores         4865242                       # Number of conflicting stores.
system.cpu0.memDep0.insertedLoads           732725501                       # Number of loads inserted to the mem dependence unit.
system.cpu0.memDep0.insertedStores          278826217                       # Number of stores inserted to the mem dependence unit.
system.cpu0.misc_regfile_reads                   2897                       # number of misc regfile reads
system.cpu0.misc_regfile_writes                    22                       # number of misc regfile writes
system.cpu0.numCycles                      4286047406                       # number of cpu cycles simulated
system.cpu0.numWorkItemsCompleted                   0                       # number of work items this cpu completed
system.cpu0.numWorkItemsStarted                     0                       # number of work items this cpu started
system.cpu0.quiesceCycles                     7017515                       # Total number of cycles that CPU has spent quiesced or waiting for an interrupt
system.cpu0.rename.BlockCycles              597882064                       # Number of cycles rename is blocking
system.cpu0.rename.CommittedMaps           1421298739                       # Number of HB maps that are committed
system.cpu0.rename.IQFullEvents              26326472                       # Number of times rename has blocked due to IQ full
system.cpu0.rename.IdleCycles              1684551905                       # Number of cycles rename is idle
system.cpu0.rename.LQFullEvents              17261657                       # Number of times rename has blocked due to LQ full
system.cpu0.rename.ROBFullEvents                63051                       # Number of times rename has blocked due to ROB full
system.cpu0.rename.RenameLookups           2873802987                       # Number of register rename lookups that rename has made
system.cpu0.rename.RenamedInsts            2350236214                       # Number of instructions processed by rename
system.cpu0.rename.RenamedOperands         1510465457                       # Number of destination operands rename has renamed
system.cpu0.rename.RunCycles               1635326966                       # Number of cycles rename is running
system.cpu0.rename.SQFullEvents              23179445                       # Number of times rename has blocked due to SQ full
system.cpu0.rename.SquashCycles              13736157                       # Number of cycles rename is squashing
system.cpu0.rename.UnblockCycles             68088639                       # Number of cycles rename is unblocking
system.cpu0.rename.UndoneMaps                89166710                       # Number of HB maps that are undone due to squashing
system.cpu0.rename.fp_rename_lookups               40                       # Number of floating rename lookups
system.cpu0.rename.int_rename_lookups      2873802947                       # Number of integer rename lookups
system.cpu0.rename.serializeStallCycles        231063                       # count of cycles rename stalled for serializing inst
system.cpu0.rename.serializingInsts              8941                       # count of serializing insts renamed
system.cpu0.rename.skidInsts                 54251711                       # count of insts added to the skid buffer
system.cpu0.rename.tempSerializingInsts          8936                       # count of temporary serializing insts renamed
system.cpu0.rob.rob_reads                  6247539074                       # The number of ROB reads
system.cpu0.rob.rob_writes                 4684200412                       # The number of ROB writes
system.cpu0.timesIdled                       53968689                       # Number of times that the entire CPU went into an idle state and unscheduled itself
system.cpu0.workload.numSyscalls                 2864                       # Number of system calls
system.cpu1.branchPred.BTBCorrect                   0                       # Number of correct BTB predictions (this stat may not work properly.
system.cpu1.branchPred.BTBHitPct            93.648792                       # BTB Hit Percentage
system.cpu1.branchPred.BTBHits               17852184                       # Number of BTB hits
system.cpu1.branchPred.BTBLookups            19062909                       # Number of BTB lookups
system.cpu1.branchPred.RASInCorrect                 0                       # Number of incorrect RAS predictions.
system.cpu1.branchPred.condIncorrect          1783687                       # Number of conditional branches incorrect
system.cpu1.branchPred.condPredicted         32369775                       # Number of conditional branches predicted
system.cpu1.branchPred.indirectHits            910432                       # Number of indirect target hits.
system.cpu1.branchPred.indirectLookups         918720                       # Number of indirect predictor lookups.
system.cpu1.branchPred.indirectMisses            8288                       # Number of indirect misses.
system.cpu1.branchPred.lookups               35520718                       # Number of BP lookups
system.cpu1.branchPred.usedRAS                      0                       # Number of times the RAS was used to get a target.
system.cpu1.branchPredindirectMispredicted        46799                       # Number of mispredicted indirect branches.
system.cpu1.commit.amos                       3801573                       # Number of atomic instructions committed
system.cpu1.commit.branchMispredicts          1381193                       # The number of times a branch was mispredicted
system.cpu1.commit.branches                  29517143                       # Number of branches committed
system.cpu1.commit.bw_lim_events              3190512                       # number cycles where commit BW limit reached
system.cpu1.commit.commitNonSpecStalls       11405397                       # The number of times commit has been forced to stall to communicate backwards
system.cpu1.commit.commitSquashedInsts       14439882                       # The number of squashed insts skipped by commit
system.cpu1.commit.committedInsts           130066723                       # Number of instructions committed
system.cpu1.commit.committedOps             133868474                       # Number of ops (including micro ops) committed
system.cpu1.commit.committed_per_cycle::samples    668811951                       # Number of insts commited each cycle
system.cpu1.commit.committed_per_cycle::mean     0.200159                       # Number of insts commited each cycle
system.cpu1.commit.committed_per_cycle::stdev     0.881446                       # Number of insts commited each cycle
system.cpu1.commit.committed_per_cycle::underflows            0      0.00%      0.00% # Number of insts commited each cycle
system.cpu1.commit.committed_per_cycle::0    613825582     91.78%     91.78% # Number of insts commited each cycle
system.cpu1.commit.committed_per_cycle::1     27034454      4.04%     95.82% # Number of insts commited each cycle
system.cpu1.commit.committed_per_cycle::2      8685765      1.30%     97.12% # Number of insts commited each cycle
system.cpu1.commit.committed_per_cycle::3      8979160      1.34%     98.46% # Number of insts commited each cycle
system.cpu1.commit.committed_per_cycle::4      2513763      0.38%     98.84% # Number of insts commited each cycle
system.cpu1.commit.committed_per_cycle::5       800751      0.12%     98.96% # Number of insts commited each cycle
system.cpu1.commit.committed_per_cycle::6      3531641      0.53%     99.49% # Number of insts commited each cycle
system.cpu1.commit.committed_per_cycle::7       250323      0.04%     99.52% # Number of insts commited each cycle
system.cpu1.commit.committed_per_cycle::8      3190512      0.48%    100.00% # Number of insts commited each cycle
system.cpu1.commit.committed_per_cycle::overflows            0      0.00%    100.00% # Number of insts commited each cycle
system.cpu1.commit.committed_per_cycle::min_value            0                       # Number of insts commited each cycle
system.cpu1.commit.committed_per_cycle::max_value            8                       # Number of insts commited each cycle
system.cpu1.commit.committed_per_cycle::total    668811951                       # Number of insts commited each cycle
system.cpu1.commit.fp_insts                        12                       # Number of committed floating point instructions.
system.cpu1.commit.function_calls             1457129                       # Number of function calls committed.
system.cpu1.commit.int_insts                125272691                       # Number of committed integer instructions.
system.cpu1.commit.loads                     36890064                       # Number of loads committed
system.cpu1.commit.membars                    7603265                       # Number of memory barriers committed
system.cpu1.commit.op_class_0::No_OpClass      7603265      5.68%      5.68% # Class of committed instruction
system.cpu1.commit.op_class_0::IntAlu        77451044     57.86%     63.54% # Class of committed instruction
system.cpu1.commit.op_class_0::IntMult             44      0.00%     63.54% # Class of committed instruction
system.cpu1.commit.op_class_0::IntDiv              88      0.00%     63.54% # Class of committed instruction
system.cpu1.commit.op_class_0::FloatAdd             0      0.00%     63.54% # Class of committed instruction
system.cpu1.commit.op_class_0::FloatCmp             0      0.00%     63.54% # Class of committed instruction
system.cpu1.commit.op_class_0::FloatCvt             0      0.00%     63.54% # Class of committed instruction
system.cpu1.commit.op_class_0::FloatMult            0      0.00%     63.54% # Class of committed instruction
system.cpu1.commit.op_class_0::FloatMultAcc            0      0.00%     63.54% # Class of committed instruction
system.cpu1.commit.op_class_0::FloatDiv             0      0.00%     63.54% # Class of committed instruction
system.cpu1.commit.op_class_0::FloatMisc            0      0.00%     63.54% # Class of committed instruction
system.cpu1.commit.op_class_0::FloatSqrt            0      0.00%     63.54% # Class of committed instruction
system.cpu1.commit.op_class_0::SimdAdd              0      0.00%     63.54% # Class of committed instruction
system.cpu1.commit.op_class_0::SimdAddAcc            0      0.00%     63.54% # Class of committed instruction
system.cpu1.commit.op_class_0::SimdAlu              0      0.00%     63.54% # Class of committed instruction
system.cpu1.commit.op_class_0::SimdCmp              0      0.00%     63.54% # Class of committed instruction
system.cpu1.commit.op_class_0::SimdCvt              0      0.00%     63.54% # Class of committed instruction
system.cpu1.commit.op_class_0::SimdMisc             0      0.00%     63.54% # Class of committed instruction
system.cpu1.commit.op_class_0::SimdMult             0      0.00%     63.54% # Class of committed instruction
system.cpu1.commit.op_class_0::SimdMultAcc            0      0.00%     63.54% # Class of committed instruction
system.cpu1.commit.op_class_0::SimdShift            0      0.00%     63.54% # Class of committed instruction
system.cpu1.commit.op_class_0::SimdShiftAcc            0      0.00%     63.54% # Class of committed instruction
system.cpu1.commit.op_class_0::SimdDiv              0      0.00%     63.54% # Class of committed instruction
system.cpu1.commit.op_class_0::SimdSqrt             0      0.00%     63.54% # Class of committed instruction
system.cpu1.commit.op_class_0::SimdFloatAdd            0      0.00%     63.54% # Class of committed instruction
system.cpu1.commit.op_class_0::SimdFloatAlu            0      0.00%     63.54% # Class of committed instruction
system.cpu1.commit.op_class_0::SimdFloatCmp            0      0.00%     63.54% # Class of committed instruction
system.cpu1.commit.op_class_0::SimdFloatCvt            0      0.00%     63.54% # Class of committed instruction
system.cpu1.commit.op_class_0::SimdFloatDiv            0      0.00%     63.54% # Class of committed instruction
system.cpu1.commit.op_class_0::SimdFloatMisc            0      0.00%     63.54% # Class of committed instruction
system.cpu1.commit.op_class_0::SimdFloatMult            0      0.00%     63.54% # Class of committed instruction
system.cpu1.commit.op_class_0::SimdFloatMultAcc            0      0.00%     63.54% # Class of committed instruction
system.cpu1.commit.op_class_0::SimdFloatSqrt            0      0.00%     63.54% # Class of committed instruction
system.cpu1.commit.op_class_0::SimdReduceAdd            0      0.00%     63.54% # Class of committed instruction
system.cpu1.commit.op_class_0::SimdReduceAlu            0      0.00%     63.54% # Class of committed instruction
system.cpu1.commit.op_class_0::SimdReduceCmp            0      0.00%     63.54% # Class of committed instruction
system.cpu1.commit.op_class_0::SimdFloatReduceAdd            0      0.00%     63.54% # Class of committed instruction
system.cpu1.commit.op_class_0::SimdFloatReduceCmp            0      0.00%     63.54% # Class of committed instruction
system.cpu1.commit.op_class_0::SimdAes              0      0.00%     63.54% # Class of committed instruction
system.cpu1.commit.op_class_0::SimdAesMix            0      0.00%     63.54% # Class of committed instruction
system.cpu1.commit.op_class_0::SimdSha1Hash            0      0.00%     63.54% # Class of committed instruction
system.cpu1.commit.op_class_0::SimdSha1Hash2            0      0.00%     63.54% # Class of committed instruction
system.cpu1.commit.op_class_0::SimdSha256Hash            0      0.00%     63.54% # Class of committed instruction
system.cpu1.commit.op_class_0::SimdSha256Hash2            0      0.00%     63.54% # Class of committed instruction
system.cpu1.commit.op_class_0::SimdShaSigma2            0      0.00%     63.54% # Class of committed instruction
system.cpu1.commit.op_class_0::SimdShaSigma3            0      0.00%     63.54% # Class of committed instruction
system.cpu1.commit.op_class_0::SimdPredAlu            0      0.00%     63.54% # Class of committed instruction
system.cpu1.commit.op_class_0::MemRead       40691637     30.40%     93.93% # Class of committed instruction
system.cpu1.commit.op_class_0::MemWrite       8122384      6.07%    100.00% # Class of committed instruction
system.cpu1.commit.op_class_0::FloatMemRead            0      0.00%    100.00% # Class of committed instruction
system.cpu1.commit.op_class_0::FloatMemWrite           12      0.00%    100.00% # Class of committed instruction
system.cpu1.commit.op_class_0::IprAccess            0      0.00%    100.00% # Class of committed instruction
system.cpu1.commit.op_class_0::InstPrefetch            0      0.00%    100.00% # Class of committed instruction
system.cpu1.commit.op_class_0::total        133868474                       # Class of committed instruction
system.cpu1.commit.refs                      48814033                       # Number of memory references committed
system.cpu1.commit.swp_count                        0                       # Number of s/w prefetches committed
system.cpu1.commit.vec_insts                        0                       # Number of committed Vector instructions.
system.cpu1.committedInsts                  130066723                       # Number of Instructions Simulated
system.cpu1.committedOps                    133868474                       # Number of Ops (including micro ops) Simulated
system.cpu1.cpi                              5.169672                       # CPI: Cycles Per Instruction
system.cpu1.cpi_total                        5.169672                       # CPI: Total CPI of All Threads
system.cpu1.decode.BlockedCycles            592554856                       # Number of cycles decode is blocked
system.cpu1.decode.BranchMispred               420788                       # Number of times decode detected a branch misprediction
system.cpu1.decode.BranchResolved            17184664                       # Number of times decode resolved a branch
system.cpu1.decode.DecodedInsts             153961024                       # Number of instructions handled by decode
system.cpu1.decode.IdleCycles                17985591                       # Number of cycles decode is idle
system.cpu1.decode.RunCycles                 50961094                       # Number of cycles decode is running
system.cpu1.decode.SquashCycles               1382554                       # Number of cycles decode is squashing
system.cpu1.decode.SquashedInsts              1115374                       # Number of squashed instructions handled by decode
system.cpu1.decode.UnblockCycles              8675991                       # Number of cycles decode is unblocking
system.cpu1.dtb.accesses                            0                       # DTB accesses
system.cpu1.dtb.hits                                0                       # DTB hits
system.cpu1.dtb.misses                              0                       # DTB misses
system.cpu1.dtb.read_accesses                       0                       # DTB read accesses
system.cpu1.dtb.read_hits                           0                       # DTB read hits
system.cpu1.dtb.read_misses                         0                       # DTB read misses
system.cpu1.dtb.write_accesses                      0                       # DTB write accesses
system.cpu1.dtb.write_hits                          0                       # DTB write hits
system.cpu1.dtb.write_misses                        0                       # DTB write misses
system.cpu1.fetch.Branches                   35520718                       # Number of branches that fetch encountered
system.cpu1.fetch.CacheLines                 19697037                       # Number of cache lines fetched
system.cpu1.fetch.Cycles                    648845954                       # Number of cycles fetch has run and was not squashing or blocked
system.cpu1.fetch.IcacheSquashes               146818                       # Number of outstanding Icache misses that were squashed
system.cpu1.fetch.IcacheWaitRetryStallCycles           16                       # Number of stall cycles due to full MSHR
system.cpu1.fetch.Insts                     155044732                       # Number of instructions fetch has processed
system.cpu1.fetch.MiscStallCycles                   3                       # Number of cycles fetch has spent waiting on interrupts, or bad addresses, or out of MSHRs
system.cpu1.fetch.PendingTrapStallCycles            1                       # Number of stall cycles due to pending traps
system.cpu1.fetch.SquashCycles                3570096                       # Number of cycles fetch has spent squashing
system.cpu1.fetch.branchRate                 0.052827                       # Number of branch fetches per cycle
system.cpu1.fetch.icacheStallCycles          20929064                       # Number of cycles fetch is stalled on an Icache miss
system.cpu1.fetch.predictedBranches          18762616                       # Number of branches that fetch has predicted taken
system.cpu1.fetch.rate                       0.230583                       # Number of inst fetches per cycle
system.cpu1.fetch.rateDist::samples         671560086                       # Number of instructions fetched each cycle (Total)
system.cpu1.fetch.rateDist::mean             0.236534                       # Number of instructions fetched each cycle (Total)
system.cpu1.fetch.rateDist::stdev            0.682160                       # Number of instructions fetched each cycle (Total)
system.cpu1.fetch.rateDist::underflows              0      0.00%      0.00% # Number of instructions fetched each cycle (Total)
system.cpu1.fetch.rateDist::0               577160139     85.94%     85.94% # Number of instructions fetched each cycle (Total)
system.cpu1.fetch.rateDist::1                53117901      7.91%     93.85% # Number of instructions fetched each cycle (Total)
system.cpu1.fetch.rateDist::2                25098131      3.74%     97.59% # Number of instructions fetched each cycle (Total)
system.cpu1.fetch.rateDist::3                10155969      1.51%     99.10% # Number of instructions fetched each cycle (Total)
system.cpu1.fetch.rateDist::4                 5141869      0.77%     99.87% # Number of instructions fetched each cycle (Total)
system.cpu1.fetch.rateDist::5                  820786      0.12%     99.99% # Number of instructions fetched each cycle (Total)
system.cpu1.fetch.rateDist::6                   64332      0.01%    100.00% # Number of instructions fetched each cycle (Total)
system.cpu1.fetch.rateDist::7                     200      0.00%    100.00% # Number of instructions fetched each cycle (Total)
system.cpu1.fetch.rateDist::8                     759      0.00%    100.00% # Number of instructions fetched each cycle (Total)
system.cpu1.fetch.rateDist::overflows               0      0.00%    100.00% # Number of instructions fetched each cycle (Total)
system.cpu1.fetch.rateDist::min_value               0                       # Number of instructions fetched each cycle (Total)
system.cpu1.fetch.rateDist::max_value               8                       # Number of instructions fetched each cycle (Total)
system.cpu1.fetch.rateDist::total           671560086                       # Number of instructions fetched each cycle (Total)
system.cpu1.fp_regfile_reads                       12                       # number of floating regfile reads
system.cpu1.idleCycles                         842216                       # Total number of cycles that the CPU has spent unscheduled due to idling
system.cpu1.iew.branchMispredicts             1498158                       # Number of branch mispredicts detected at execute
system.cpu1.iew.exec_branches                31479005                       # Number of branches executed
system.cpu1.iew.exec_nop                            0                       # number of nop insts executed
system.cpu1.iew.exec_rate                    0.214032                       # Inst execution rate
system.cpu1.iew.exec_refs                    51939179                       # number of memory reference insts executed
system.cpu1.iew.exec_stores                  12349065                       # Number of stores executed
system.cpu1.iew.exec_swp                            0                       # number of swp insts executed
system.cpu1.iew.iewBlockCycles              509859911                       # Number of cycles IEW is blocking
system.cpu1.iew.iewDispLoadInsts             40104324                       # Number of dispatched load instructions
system.cpu1.iew.iewDispNonSpecInsts           3802264                       # Number of dispatched non-speculative instructions
system.cpu1.iew.iewDispSquashedInsts          1194950                       # Number of squashed instructions skipped by dispatch
system.cpu1.iew.iewDispStoreInsts            12669669                       # Number of dispatched store instructions
system.cpu1.iew.iewDispatchedInsts          148296095                       # Number of instructions dispatched to IQ
system.cpu1.iew.iewExecLoadInsts             39590114                       # Number of load instructions executed
system.cpu1.iew.iewExecSquashedInsts          1519090                       # Number of squashed instructions skipped in execute
system.cpu1.iew.iewExecutedInsts            143915895                       # Number of executed instructions
system.cpu1.iew.iewIQFullEvents               3218102                       # Number of times the IQ has become full, causing a stall
system.cpu1.iew.iewIdleCycles                       0                       # Number of cycles IEW is idle
system.cpu1.iew.iewLSQFullEvents              3728554                       # Number of times the LSQ has become full, causing a stall
system.cpu1.iew.iewSquashCycles               1382554                       # Number of cycles IEW is squashing
system.cpu1.iew.iewUnblockCycles             11207687                       # Number of cycles IEW is unblocking
system.cpu1.iew.lsq.thread0.blockedLoads            0                       # Number of blocked loads due to partial load-store forwarding
system.cpu1.iew.lsq.thread0.cacheBlocked        53039                       # Number of times an access to memory failed due to the cache being blocked
system.cpu1.iew.lsq.thread0.forwLoads         1061827                       # Number of loads that had data forwarded from stores
system.cpu1.iew.lsq.thread0.ignoredResponses        32764                       # Number of memory responses ignored because the instruction is squashed
system.cpu1.iew.lsq.thread0.invAddrLoads            0                       # Number of loads ignored due to an invalid address
system.cpu1.iew.lsq.thread0.invAddrSwpfs            0                       # Number of software prefetches ignored due to an invalid address
system.cpu1.iew.lsq.thread0.memOrderViolation         1611                       # Number of memory ordering violations
system.cpu1.iew.lsq.thread0.rescheduledLoads         4382                       # Number of loads that were rescheduled
system.cpu1.iew.lsq.thread0.squashedLoads      3214260                       # Number of loads squashed
system.cpu1.iew.lsq.thread0.squashedStores       745700                       # Number of stores squashed
system.cpu1.iew.memOrderViolationEvents          1611                       # Number of memory order violations
system.cpu1.iew.predictedNotTakenIncorrect       508884                       # Number of branches that were predicted not taken incorrectly
system.cpu1.iew.predictedTakenIncorrect        989274                       # Number of branches that were predicted taken incorrectly
system.cpu1.iew.wb_consumers                 82115778                       # num instructions consuming a value
system.cpu1.iew.wb_count                    142890221                       # cumulative count of insts written-back
system.cpu1.iew.wb_fanout                    0.858864                       # average fanout of values written-back
system.cpu1.iew.wb_producers                 70526316                       # num instructions producing a value
system.cpu1.iew.wb_rate                      0.212507                       # insts written-back per cycle
system.cpu1.iew.wb_sent                     142931425                       # cumulative count of insts sent to commit
system.cpu1.int_regfile_reads               178995873                       # number of integer regfile reads
system.cpu1.int_regfile_writes               96071439                       # number of integer regfile writes
system.cpu1.ipc                              0.193436                       # IPC: Instructions Per Cycle
system.cpu1.ipc_total                        0.193436                       # IPC: Total IPC of All Threads
system.cpu1.iq.FU_type_0::No_OpClass          7603373      5.23%      5.23% # Type of FU issued
system.cpu1.iq.FU_type_0::IntAlu             85465534     58.77%     63.99% # Type of FU issued
system.cpu1.iq.FU_type_0::IntMult                  47      0.00%     63.99% # Type of FU issued
system.cpu1.iq.FU_type_0::IntDiv                   90      0.00%     63.99% # Type of FU issued
system.cpu1.iq.FU_type_0::FloatAdd                  0      0.00%     63.99% # Type of FU issued
system.cpu1.iq.FU_type_0::FloatCmp                  0      0.00%     63.99% # Type of FU issued
system.cpu1.iq.FU_type_0::FloatCvt                  0      0.00%     63.99% # Type of FU issued
system.cpu1.iq.FU_type_0::FloatMult                 0      0.00%     63.99% # Type of FU issued
system.cpu1.iq.FU_type_0::FloatMultAcc              0      0.00%     63.99% # Type of FU issued
system.cpu1.iq.FU_type_0::FloatDiv                  0      0.00%     63.99% # Type of FU issued
system.cpu1.iq.FU_type_0::FloatMisc                 0      0.00%     63.99% # Type of FU issued
system.cpu1.iq.FU_type_0::FloatSqrt                 0      0.00%     63.99% # Type of FU issued
system.cpu1.iq.FU_type_0::SimdAdd                   0      0.00%     63.99% # Type of FU issued
system.cpu1.iq.FU_type_0::SimdAddAcc                0      0.00%     63.99% # Type of FU issued
system.cpu1.iq.FU_type_0::SimdAlu                   0      0.00%     63.99% # Type of FU issued
system.cpu1.iq.FU_type_0::SimdCmp                   0      0.00%     63.99% # Type of FU issued
system.cpu1.iq.FU_type_0::SimdCvt                   0      0.00%     63.99% # Type of FU issued
system.cpu1.iq.FU_type_0::SimdMisc                  0      0.00%     63.99% # Type of FU issued
system.cpu1.iq.FU_type_0::SimdMult                  0      0.00%     63.99% # Type of FU issued
system.cpu1.iq.FU_type_0::SimdMultAcc               0      0.00%     63.99% # Type of FU issued
system.cpu1.iq.FU_type_0::SimdShift                 0      0.00%     63.99% # Type of FU issued
system.cpu1.iq.FU_type_0::SimdShiftAcc              0      0.00%     63.99% # Type of FU issued
system.cpu1.iq.FU_type_0::SimdDiv                   0      0.00%     63.99% # Type of FU issued
system.cpu1.iq.FU_type_0::SimdSqrt                  0      0.00%     63.99% # Type of FU issued
system.cpu1.iq.FU_type_0::SimdFloatAdd              0      0.00%     63.99% # Type of FU issued
system.cpu1.iq.FU_type_0::SimdFloatAlu              0      0.00%     63.99% # Type of FU issued
system.cpu1.iq.FU_type_0::SimdFloatCmp              0      0.00%     63.99% # Type of FU issued
system.cpu1.iq.FU_type_0::SimdFloatCvt              0      0.00%     63.99% # Type of FU issued
system.cpu1.iq.FU_type_0::SimdFloatDiv              0      0.00%     63.99% # Type of FU issued
system.cpu1.iq.FU_type_0::SimdFloatMisc             0      0.00%     63.99% # Type of FU issued
system.cpu1.iq.FU_type_0::SimdFloatMult             0      0.00%     63.99% # Type of FU issued
system.cpu1.iq.FU_type_0::SimdFloatMultAcc            0      0.00%     63.99% # Type of FU issued
system.cpu1.iq.FU_type_0::SimdFloatSqrt             0      0.00%     63.99% # Type of FU issued
system.cpu1.iq.FU_type_0::SimdReduceAdd             0      0.00%     63.99% # Type of FU issued
system.cpu1.iq.FU_type_0::SimdReduceAlu             0      0.00%     63.99% # Type of FU issued
system.cpu1.iq.FU_type_0::SimdReduceCmp             0      0.00%     63.99% # Type of FU issued
system.cpu1.iq.FU_type_0::SimdFloatReduceAdd            0      0.00%     63.99% # Type of FU issued
system.cpu1.iq.FU_type_0::SimdFloatReduceCmp            0      0.00%     63.99% # Type of FU issued
system.cpu1.iq.FU_type_0::SimdAes                   0      0.00%     63.99% # Type of FU issued
system.cpu1.iq.FU_type_0::SimdAesMix                0      0.00%     63.99% # Type of FU issued
system.cpu1.iq.FU_type_0::SimdSha1Hash              0      0.00%     63.99% # Type of FU issued
system.cpu1.iq.FU_type_0::SimdSha1Hash2             0      0.00%     63.99% # Type of FU issued
system.cpu1.iq.FU_type_0::SimdSha256Hash            0      0.00%     63.99% # Type of FU issued
system.cpu1.iq.FU_type_0::SimdSha256Hash2            0      0.00%     63.99% # Type of FU issued
system.cpu1.iq.FU_type_0::SimdShaSigma2             0      0.00%     63.99% # Type of FU issued
system.cpu1.iq.FU_type_0::SimdShaSigma3             0      0.00%     63.99% # Type of FU issued
system.cpu1.iq.FU_type_0::SimdPredAlu               0      0.00%     63.99% # Type of FU issued
system.cpu1.iq.FU_type_0::MemRead            43765131     30.09%     94.09% # Type of FU issued
system.cpu1.iq.FU_type_0::MemWrite            8600798      5.91%    100.00% # Type of FU issued
system.cpu1.iq.FU_type_0::FloatMemRead              0      0.00%    100.00% # Type of FU issued
system.cpu1.iq.FU_type_0::FloatMemWrite            12      0.00%    100.00% # Type of FU issued
system.cpu1.iq.FU_type_0::IprAccess                 0      0.00%    100.00% # Type of FU issued
system.cpu1.iq.FU_type_0::InstPrefetch              0      0.00%    100.00% # Type of FU issued
system.cpu1.iq.FU_type_0::total             145434985                       # Type of FU issued
system.cpu1.iq.fp_alu_accesses                     14                       # Number of floating point alu accesses
system.cpu1.iq.fp_inst_queue_reads                 26                       # Number of floating instruction queue reads
system.cpu1.iq.fp_inst_queue_wakeup_accesses           12                       # Number of floating instruction queue wakeup accesses
system.cpu1.iq.fp_inst_queue_writes                12                       # Number of floating instruction queue writes
system.cpu1.iq.fu_busy_cnt                    4106130                       # FU busy when requested
system.cpu1.iq.fu_busy_rate                  0.028233                       # FU busy rate (busy events/executed inst)
system.cpu1.iq.fu_full::No_OpClass                  0      0.00%      0.00% # attempts to use FU when none available
system.cpu1.iq.fu_full::IntAlu                 701097     17.07%     17.07% # attempts to use FU when none available
system.cpu1.iq.fu_full::IntMult                     0      0.00%     17.07% # attempts to use FU when none available
system.cpu1.iq.fu_full::IntDiv                      0      0.00%     17.07% # attempts to use FU when none available
system.cpu1.iq.fu_full::FloatAdd                    0      0.00%     17.07% # attempts to use FU when none available
system.cpu1.iq.fu_full::FloatCmp                    0      0.00%     17.07% # attempts to use FU when none available
system.cpu1.iq.fu_full::FloatCvt                    0      0.00%     17.07% # attempts to use FU when none available
system.cpu1.iq.fu_full::FloatMult                   0      0.00%     17.07% # attempts to use FU when none available
system.cpu1.iq.fu_full::FloatMultAcc                0      0.00%     17.07% # attempts to use FU when none available
system.cpu1.iq.fu_full::FloatDiv                    0      0.00%     17.07% # attempts to use FU when none available
system.cpu1.iq.fu_full::FloatMisc                   0      0.00%     17.07% # attempts to use FU when none available
system.cpu1.iq.fu_full::FloatSqrt                   0      0.00%     17.07% # attempts to use FU when none available
system.cpu1.iq.fu_full::SimdAdd                     0      0.00%     17.07% # attempts to use FU when none available
system.cpu1.iq.fu_full::SimdAddAcc                  0      0.00%     17.07% # attempts to use FU when none available
system.cpu1.iq.fu_full::SimdAlu                     0      0.00%     17.07% # attempts to use FU when none available
system.cpu1.iq.fu_full::SimdCmp                     0      0.00%     17.07% # attempts to use FU when none available
system.cpu1.iq.fu_full::SimdCvt                     0      0.00%     17.07% # attempts to use FU when none available
system.cpu1.iq.fu_full::SimdMisc                    0      0.00%     17.07% # attempts to use FU when none available
system.cpu1.iq.fu_full::SimdMult                    0      0.00%     17.07% # attempts to use FU when none available
system.cpu1.iq.fu_full::SimdMultAcc                 0      0.00%     17.07% # attempts to use FU when none available
system.cpu1.iq.fu_full::SimdShift                   0      0.00%     17.07% # attempts to use FU when none available
system.cpu1.iq.fu_full::SimdShiftAcc                0      0.00%     17.07% # attempts to use FU when none available
system.cpu1.iq.fu_full::SimdDiv                     0      0.00%     17.07% # attempts to use FU when none available
system.cpu1.iq.fu_full::SimdSqrt                    0      0.00%     17.07% # attempts to use FU when none available
system.cpu1.iq.fu_full::SimdFloatAdd                0      0.00%     17.07% # attempts to use FU when none available
system.cpu1.iq.fu_full::SimdFloatAlu                0      0.00%     17.07% # attempts to use FU when none available
system.cpu1.iq.fu_full::SimdFloatCmp                0      0.00%     17.07% # attempts to use FU when none available
system.cpu1.iq.fu_full::SimdFloatCvt                0      0.00%     17.07% # attempts to use FU when none available
system.cpu1.iq.fu_full::SimdFloatDiv                0      0.00%     17.07% # attempts to use FU when none available
system.cpu1.iq.fu_full::SimdFloatMisc               0      0.00%     17.07% # attempts to use FU when none available
system.cpu1.iq.fu_full::SimdFloatMult               0      0.00%     17.07% # attempts to use FU when none available
system.cpu1.iq.fu_full::SimdFloatMultAcc            0      0.00%     17.07% # attempts to use FU when none available
system.cpu1.iq.fu_full::SimdFloatSqrt               0      0.00%     17.07% # attempts to use FU when none available
system.cpu1.iq.fu_full::SimdReduceAdd               0      0.00%     17.07% # attempts to use FU when none available
system.cpu1.iq.fu_full::SimdReduceAlu               0      0.00%     17.07% # attempts to use FU when none available
system.cpu1.iq.fu_full::SimdReduceCmp               0      0.00%     17.07% # attempts to use FU when none available
system.cpu1.iq.fu_full::SimdFloatReduceAdd            0      0.00%     17.07% # attempts to use FU when none available
system.cpu1.iq.fu_full::SimdFloatReduceCmp            0      0.00%     17.07% # attempts to use FU when none available
system.cpu1.iq.fu_full::SimdAes                     0      0.00%     17.07% # attempts to use FU when none available
system.cpu1.iq.fu_full::SimdAesMix                  0      0.00%     17.07% # attempts to use FU when none available
system.cpu1.iq.fu_full::SimdSha1Hash                0      0.00%     17.07% # attempts to use FU when none available
system.cpu1.iq.fu_full::SimdSha1Hash2               0      0.00%     17.07% # attempts to use FU when none available
system.cpu1.iq.fu_full::SimdSha256Hash              0      0.00%     17.07% # attempts to use FU when none available
system.cpu1.iq.fu_full::SimdSha256Hash2             0      0.00%     17.07% # attempts to use FU when none available
system.cpu1.iq.fu_full::SimdShaSigma2               0      0.00%     17.07% # attempts to use FU when none available
system.cpu1.iq.fu_full::SimdShaSigma3               0      0.00%     17.07% # attempts to use FU when none available
system.cpu1.iq.fu_full::SimdPredAlu                 0      0.00%     17.07% # attempts to use FU when none available
[...]
system.cpu1.dcache.ReadReq_avg_miss_latency::.cpu1.data 84484.235616                       # average ReadReq miss latency
system.cpu1.dcache.ReadReq_avg_miss_latency::total 84484.235616                       # average ReadReq miss latency
system.cpu1.dcache.ReadReq_mshr_hits::.cpu1.data      8980079                       # number of ReadReq MSHR hits
system.cpu1.dcache.ReadReq_mshr_hits::total      8980079                       # number of ReadReq MSHR hits
system.cpu1.dcache.ReadReq_mshr_misses::.cpu1.data      8051605                       # number of ReadReq MSHR misses
system.cpu1.dcache.ReadReq_mshr_misses::total      8051605                       # number of ReadReq MSHR misses
system.cpu1.dcache.ReadReq_mshr_miss_latency::.cpu1.data 833691483500                       # number of ReadReq MSHR miss cycles
system.cpu1.dcache.ReadReq_mshr_miss_latency::total 833691483500                       # number of ReadReq MSHR miss cycles
system.cpu1.dcache.ReadReq_mshr_miss_rate::.cpu1.data     0.104343                       # mshr miss rate for ReadReq accesses
system.cpu1.dcache.ReadReq_mshr_miss_rate::total     0.104343                       # mshr miss rate for ReadReq accesses
system.cpu1.dcache.ReadReq_avg_mshr_miss_latency::.cpu1.data 103543.515051                       # average ReadReq mshr miss latency
system.cpu1.dcache.ReadReq_avg_mshr_miss_latency::total 103543.515051                       # average ReadReq mshr miss latency
system.cpu1.dcache.WriteReq_hits::.cpu1.data      2689286                       # number of WriteReq hits
system.cpu1.dcache.WriteReq_hits::total       2689286                       # number of WriteReq hits
system.cpu1.dcache.WriteReq_misses::.cpu1.data      1005419                       # number of WriteReq misses
system.cpu1.dcache.WriteReq_misses::total      1005419                       # number of WriteReq misses
system.cpu1.dcache.WriteReq_miss_latency::.cpu1.data  70542095119                       # number of WriteReq miss cycles
system.cpu1.dcache.WriteReq_miss_latency::total  70542095119                       # number of WriteReq miss cycles
system.cpu1.dcache.WriteReq_accesses::.cpu1.data      3694705                       # number of WriteReq accesses(hits+misses)
system.cpu1.dcache.WriteReq_accesses::total      3694705                       # number of WriteReq accesses(hits+misses)
system.cpu1.dcache.WriteReq_miss_rate::.cpu1.data     0.272124                       # miss rate for WriteReq accesses
system.cpu1.dcache.WriteReq_miss_rate::total     0.272124                       # miss rate for WriteReq accesses
system.cpu1.dcache.WriteReq_avg_miss_latency::.cpu1.data 70161.887849                       # average WriteReq miss latency
system.cpu1.dcache.WriteReq_avg_miss_latency::total 70161.887849                       # average WriteReq miss latency
system.cpu1.dcache.WriteReq_mshr_hits::.cpu1.data       898834                       # number of WriteReq MSHR hits
system.cpu1.dcache.WriteReq_mshr_hits::total       898834                       # number of WriteReq MSHR hits
system.cpu1.dcache.WriteReq_mshr_misses::.cpu1.data       106585                       # number of WriteReq MSHR misses
system.cpu1.dcache.WriteReq_mshr_misses::total       106585                       # number of WriteReq MSHR misses
system.cpu1.dcache.WriteReq_mshr_miss_latency::.cpu1.data   6698418717                       # number of WriteReq MSHR miss cycles
system.cpu1.dcache.WriteReq_mshr_miss_latency::total   6698418717                       # number of WriteReq MSHR miss cycles
system.cpu1.dcache.WriteReq_mshr_miss_rate::.cpu1.data     0.028848                       # mshr miss rate for WriteReq accesses
system.cpu1.dcache.WriteReq_mshr_miss_rate::total     0.028848                       # mshr miss rate for WriteReq accesses
system.cpu1.dcache.WriteReq_avg_mshr_miss_latency::.cpu1.data 62845.791781                       # average WriteReq mshr miss latency
system.cpu1.dcache.WriteReq_avg_mshr_miss_latency::total 62845.791781                       # average WriteReq mshr miss latency
system.cpu1.dcache.LoadLockedReq_hits::.cpu1.data          682                       # number of LoadLockedReq hits
system.cpu1.dcache.LoadLockedReq_hits::total          682                       # number of LoadLockedReq hits
system.cpu1.dcache.LoadLockedReq_misses::.cpu1.data          149                       # number of LoadLockedReq misses
system.cpu1.dcache.LoadLockedReq_misses::total          149                       # number of LoadLockedReq misses
system.cpu1.dcache.LoadLockedReq_miss_latency::.cpu1.data     13643500                       # number of LoadLockedReq miss cycles
system.cpu1.dcache.LoadLockedReq_miss_latency::total     13643500                       # number of LoadLockedReq miss cycles
system.cpu1.dcache.LoadLockedReq_accesses::.cpu1.data          831                       # number of LoadLockedReq accesses(hits+misses)
system.cpu1.dcache.LoadLockedReq_accesses::total          831                       # number of LoadLockedReq accesses(hits+misses)
system.cpu1.dcache.LoadLockedReq_miss_rate::.cpu1.data     0.179302                       # miss rate for LoadLockedReq accesses
system.cpu1.dcache.LoadLockedReq_miss_rate::total     0.179302                       # miss rate for LoadLockedReq accesses
system.cpu1.dcache.LoadLockedReq_avg_miss_latency::.cpu1.data 91567.114094                       # average LoadLockedReq miss latency
system.cpu1.dcache.LoadLockedReq_avg_miss_latency::total 91567.114094                       # average LoadLockedReq miss latency
system.cpu1.dcache.LoadLockedReq_mshr_hits::.cpu1.data           64                       # number of LoadLockedReq MSHR hits
system.cpu1.dcache.LoadLockedReq_mshr_hits::total           64                       # number of LoadLockedReq MSHR hits
system.cpu1.dcache.LoadLockedReq_mshr_misses::.cpu1.data           85                       # number of LoadLockedReq MSHR misses
system.cpu1.dcache.LoadLockedReq_mshr_misses::total           85                       # number of LoadLockedReq MSHR misses
system.cpu1.dcache.LoadLockedReq_mshr_miss_latency::.cpu1.data      7218500                       # number of LoadLockedReq MSHR miss cycles
system.cpu1.dcache.LoadLockedReq_mshr_miss_latency::total      7218500                       # number of LoadLockedReq MSHR miss cycles
system.cpu1.dcache.LoadLockedReq_mshr_miss_rate::.cpu1.data     0.102286                       # mshr miss rate for LoadLockedReq accesses
system.cpu1.dcache.LoadLockedReq_mshr_miss_rate::total     0.102286                       # mshr miss rate for LoadLockedReq accesses
system.cpu1.dcache.LoadLockedReq_avg_mshr_miss_latency::.cpu1.data 84923.529412                       # average LoadLockedReq mshr miss latency
system.cpu1.dcache.LoadLockedReq_avg_mshr_miss_latency::total 84923.529412                       # average LoadLockedReq mshr miss latency
system.cpu1.dcache.StoreCondReq_hits::.cpu1.data          580                       # number of StoreCondReq hits
system.cpu1.dcache.StoreCondReq_hits::total          580                       # number of StoreCondReq hits
system.cpu1.dcache.StoreCondReq_misses::.cpu1.data          219                       # number of StoreCondReq misses
system.cpu1.dcache.StoreCondReq_misses::total          219                       # number of StoreCondReq misses
system.cpu1.dcache.StoreCondReq_miss_latency::.cpu1.data      1872000                       # number of StoreCondReq miss cycles
system.cpu1.dcache.StoreCondReq_miss_latency::total      1872000                       # number of StoreCondReq miss cycles
system.cpu1.dcache.StoreCondReq_accesses::.cpu1.data          799                       # number of StoreCondReq accesses(hits+misses)
system.cpu1.dcache.StoreCondReq_accesses::total          799                       # number of StoreCondReq accesses(hits+misses)
system.cpu1.dcache.StoreCondReq_miss_rate::.cpu1.data     0.274093                       # miss rate for StoreCondReq accesses
system.cpu1.dcache.StoreCondReq_miss_rate::total     0.274093                       # miss rate for StoreCondReq accesses
system.cpu1.dcache.StoreCondReq_avg_miss_latency::.cpu1.data  8547.945205                       # average StoreCondReq miss latency
system.cpu1.dcache.StoreCondReq_avg_miss_latency::total  8547.945205                       # average StoreCondReq miss latency
system.cpu1.dcache.StoreCondReq_mshr_misses::.cpu1.data          219                       # number of StoreCondReq MSHR misses
system.cpu1.dcache.StoreCondReq_mshr_misses::total          219                       # number of StoreCondReq MSHR misses
system.cpu1.dcache.StoreCondReq_mshr_miss_latency::.cpu1.data      1653000                       # number of StoreCondReq MSHR miss cycles
system.cpu1.dcache.StoreCondReq_mshr_miss_latency::total      1653000                       # number of StoreCondReq MSHR miss cycles
system.cpu1.dcache.StoreCondReq_mshr_miss_rate::.cpu1.data     0.274093                       # mshr miss rate for StoreCondReq accesses
system.cpu1.dcache.StoreCondReq_mshr_miss_rate::total     0.274093                       # mshr miss rate for StoreCondReq accesses
system.cpu1.dcache.StoreCondReq_avg_mshr_miss_latency::.cpu1.data  7547.945205                       # average StoreCondReq mshr miss latency
system.cpu1.dcache.StoreCondReq_avg_mshr_miss_latency::total  7547.945205                       # average StoreCondReq mshr miss latency
system.cpu1.dcache.SwapReq_hits::.cpu1.data          313                       # number of SwapReq hits
system.cpu1.dcache.SwapReq_hits::total            313                       # number of SwapReq hits
system.cpu1.dcache.SwapReq_misses::.cpu1.data          149                       # number of SwapReq misses
system.cpu1.dcache.SwapReq_misses::total          149                       # number of SwapReq misses
system.cpu1.dcache.SwapReq_miss_latency::.cpu1.data       697000                       # number of SwapReq miss cycles
system.cpu1.dcache.SwapReq_miss_latency::total       697000                       # number of SwapReq miss cycles
system.cpu1.dcache.SwapReq_accesses::.cpu1.data          462                       # number of SwapReq accesses(hits+misses)
system.cpu1.dcache.SwapReq_accesses::total          462                       # number of SwapReq accesses(hits+misses)
system.cpu1.dcache.SwapReq_miss_rate::.cpu1.data     0.322511                       # miss rate for SwapReq accesses
system.cpu1.dcache.SwapReq_miss_rate::total     0.322511                       # miss rate for SwapReq accesses
system.cpu1.dcache.SwapReq_avg_miss_latency::.cpu1.data  4677.852349                       # average SwapReq miss latency
system.cpu1.dcache.SwapReq_avg_miss_latency::total  4677.852349                       # average SwapReq miss latency
system.cpu1.dcache.SwapReq_mshr_misses::.cpu1.data          149                       # number of SwapReq MSHR misses
system.cpu1.dcache.SwapReq_mshr_misses::total          149                       # number of SwapReq MSHR misses
system.cpu1.dcache.SwapReq_mshr_miss_latency::.cpu1.data       548000                       # number of SwapReq MSHR miss cycles
system.cpu1.dcache.SwapReq_mshr_miss_latency::total       548000                       # number of SwapReq MSHR miss cycles
system.cpu1.dcache.SwapReq_mshr_miss_rate::.cpu1.data     0.322511                       # mshr miss rate for SwapReq accesses
system.cpu1.dcache.SwapReq_mshr_miss_rate::total     0.322511                       # mshr miss rate for SwapReq accesses
system.cpu1.dcache.SwapReq_avg_mshr_miss_latency::.cpu1.data  3677.852349                       # average SwapReq mshr miss latency
system.cpu1.dcache.SwapReq_avg_mshr_miss_latency::total  3677.852349                       # average SwapReq mshr miss latency
system.cpu1.dcache.tags.pwrStateResidencyTicks::UNDEFINED 1107201222000                       # Cumulative time (in ticks) in various power states
system.cpu1.dcache.tags.tagsinuse           31.996453                       # Cycle average of tags in use
system.cpu1.dcache.tags.total_refs           70985348                       # Total number of references to valid blocks.
system.cpu1.dcache.tags.sampled_refs          8158120                       # Sample count of references to valid blocks.
system.cpu1.dcache.tags.avg_refs             8.701189                       # Average number of references to valid blocks.
system.cpu1.dcache.tags.warmup_cycle                0                       # Cycle when the warmup percentage was hit.
system.cpu1.dcache.tags.occ_blocks::.cpu1.data    31.996453                       # Average occupied blocks per requestor
system.cpu1.dcache.tags.occ_percent::.cpu1.data     0.999889                       # Average percentage of cache occupancy
system.cpu1.dcache.tags.occ_percent::total     0.999889                       # Average percentage of cache occupancy
system.cpu1.dcache.tags.occ_task_id_blocks::1024           29                       # Occupied blocks per task id
system.cpu1.dcache.tags.age_task_id_blocks_1024::1           29                       # Occupied blocks per task id
system.cpu1.dcache.tags.occ_task_id_percent::1024     0.906250                       # Percentage of cache occupancy per task id
system.cpu1.dcache.tags.tag_accesses        169881776                       # Number of tag accesses
system.cpu1.dcache.tags.data_accesses       169881776                       # Number of data accesses
system.cpu_clk_domain.clock                       500                       # Clock period in ticks
system.tol2bus.pwrStateResidencyTicks::UNDEFINED 1107201222000                       # Cumulative time (in ticks) in various power states
system.tol2bus.trans_dist::ReadResp          47769246                       # Transaction distribution
system.tol2bus.trans_dist::WritebackDirty      2485884                       # Transaction distribution
system.tol2bus.trans_dist::WritebackClean     46666357                       # Transaction distribution
system.tol2bus.trans_dist::CleanEvict       148288788                       # Transaction distribution
system.tol2bus.trans_dist::HardPFReq        117147192                       # Transaction distribution
system.tol2bus.trans_dist::HardPFResp               5                       # Transaction distribution
system.tol2bus.trans_dist::UpgradeReq            1392                       # Transaction distribution
system.tol2bus.trans_dist::SCUpgradeReq           446                       # Transaction distribution
system.tol2bus.trans_dist::UpgradeResp           1838                       # Transaction distribution
system.tol2bus.trans_dist::ReadExReq           211709                       # Transaction distribution
system.tol2bus.trans_dist::ReadExResp          211709                       # Transaction distribution
system.tol2bus.trans_dist::ReadCleanReq         18329                       # Transaction distribution
system.tol2bus.trans_dist::ReadSharedReq     47750917                       # Transaction distribution
system.tol2bus.pkt_count_system.cpu0.icache.mem_side::system.l2.cpu_side        46809                       # Packet count per connected master and slave (bytes)
system.tol2bus.pkt_count_system.cpu0.dcache.mem_side::system.l2.cpu_side    119413050                       # Packet count per connected master and slave (bytes)
system.tol2bus.pkt_count_system.cpu1.icache.mem_side::system.l2.cpu_side         8178                       # Packet count per connected master and slave (bytes)
system.tol2bus.pkt_count_system.cpu1.dcache.mem_side::system.l2.cpu_side     24471430                       # Packet count per connected master and slave (bytes)
system.tol2bus.pkt_count::total             143939467                       # Packet count per connected master and slave (bytes)
system.tol2bus.pkt_size_system.cpu0.icache.mem_side::system.l2.cpu_side      1997184                       # Cumulative packet size per connected master and slave (bytes)
system.tol2bus.pkt_size_system.cpu0.dcache.mem_side::system.l2.cpu_side   5094829632                       # Cumulative packet size per connected master and slave (bytes)
system.tol2bus.pkt_size_system.cpu1.icache.mem_side::system.l2.cpu_side       348928                       # Cumulative packet size per connected master and slave (bytes)
system.tol2bus.pkt_size_system.cpu1.dcache.mem_side::system.l2.cpu_side   1044012416                       # Cumulative packet size per connected master and slave (bytes)
system.tol2bus.pkt_size::total             6141188160                       # Cumulative packet size per connected master and slave (bytes)
system.tol2bus.snoops                       266614350                       # Total snoops (count)
system.tol2bus.snoopTraffic                  75337024                       # Total snoop traffic (bytes)
system.tol2bus.snoop_fanout::samples        314596225                       # Request fanout histogram
system.tol2bus.snoop_fanout::mean            0.132925                       # Request fanout histogram
system.tol2bus.snoop_fanout::stdev           0.340949                       # Request fanout histogram
system.tol2bus.snoop_fanout::underflows             0      0.00%      0.00% # Request fanout histogram
system.tol2bus.snoop_fanout::0              272934150     86.76%     86.76% # Request fanout histogram
system.tol2bus.snoop_fanout::1               41506327     13.19%     99.95% # Request fanout histogram
system.tol2bus.snoop_fanout::2                 155748      0.05%    100.00% # Request fanout histogram
system.tol2bus.snoop_fanout::3                      0      0.00%    100.00% # Request fanout histogram
system.tol2bus.snoop_fanout::4                      0      0.00%    100.00% # Request fanout histogram
system.tol2bus.snoop_fanout::5                      0      0.00%    100.00% # Request fanout histogram
system.tol2bus.snoop_fanout::6                      0      0.00%    100.00% # Request fanout histogram
system.tol2bus.snoop_fanout::7                      0      0.00%    100.00% # Request fanout histogram
system.tol2bus.snoop_fanout::8                      0      0.00%    100.00% # Request fanout histogram
system.tol2bus.snoop_fanout::overflows              0      0.00%    100.00% # Request fanout histogram
system.tol2bus.snoop_fanout::min_value              0                       # Request fanout histogram
system.tol2bus.snoop_fanout::max_value              2                       # Request fanout histogram
system.tol2bus.snoop_fanout::total          314596225                       # Request fanout histogram
system.tol2bus.reqLayer0.occupancy        95971287147                       # Layer occupancy (ticks)
system.tol2bus.reqLayer0.utilization              8.7                       # Layer utilization (%)
system.tol2bus.respLayer1.occupancy       59718747345                       # Layer occupancy (ticks)
system.tol2bus.respLayer1.utilization             5.4                       # Layer utilization (%)
system.tol2bus.respLayer0.occupancy          23415478                       # Layer occupancy (ticks)
system.tol2bus.respLayer0.utilization             0.0                       # Layer utilization (%)
system.tol2bus.respLayer3.occupancy       12244964373                       # Layer occupancy (ticks)
system.tol2bus.respLayer3.utilization             1.1                       # Layer utilization (%)
system.tol2bus.respLayer2.occupancy           4093990                       # Layer occupancy (ticks)
system.tol2bus.respLayer2.utilization             0.0                       # Layer utilization (%)
system.tol2bus.snoopLayer0.occupancy             7503                       # Layer occupancy (ticks)
system.tol2bus.snoopLayer0.utilization            0.0                       # Layer utilization (%)

---------- End Simulation Statistics   ----------
