
---------- Begin Simulation Statistics ----------
final_tick                                51456077000                       # Number of ticks from beginning of simulation (restored from checkpoints and never reset)
host_inst_rate                                  76752                       # Simulator instruction rate (inst/s)
host_mem_usage                                 738304                       # Number of bytes of host memory used
host_op_rate                                    77071                       # Simulator op (including micro ops) rate (op/s)
host_seconds                                   824.70                       # Real time elapsed on the host
host_tick_rate                               62393874                       # Simulator tick rate (ticks/s)
sim_freq                                 1000000000000                       # Frequency of simulated ticks
sim_insts                                    63297577                       # Number of instructions simulated
sim_ops                                      63560529                       # Number of ops (including micro ops) simulated
sim_seconds                                  0.051456                       # Number of seconds simulated
sim_ticks                                 51456077000                       # Number of ticks simulated
system.cpu0.branchPred.BTBCorrect                   0                       # Number of correct BTB predictions (this stat may not work properly.
system.cpu0.branchPred.BTBHitPct            84.430761                       # BTB Hit Percentage
system.cpu0.branchPred.BTBHits               12399185                       # Number of BTB hits
system.cpu0.branchPred.BTBLookups            14685625                       # Number of BTB lookups
system.cpu0.branchPred.RASInCorrect                 0                       # Number of incorrect RAS predictions.
system.cpu0.branchPred.condIncorrect          2831404                       # Number of conditional branches incorrect
system.cpu0.branchPred.condPredicted         13733551                       # Number of conditional branches predicted
system.cpu0.branchPred.indirectHits           1033592                       # Number of indirect target hits.
system.cpu0.branchPred.indirectLookups        1039700                       # Number of indirect predictor lookups.
system.cpu0.branchPred.indirectMisses            6108                       # Number of indirect misses.
system.cpu0.branchPred.lookups               16950366                       # Number of BP lookups
system.cpu0.branchPred.usedRAS                      0                       # Number of times the RAS was used to get a target.
system.cpu0.branchPredindirectMispredicted         3966                       # Number of mispredicted indirect branches.
system.cpu0.commit.amos                         65821                       # Number of atomic instructions committed
system.cpu0.commit.branchMispredicts          1530294                       # The number of times a branch was mispredicted
system.cpu0.commit.branches                   8107358                       # Number of branches committed
system.cpu0.commit.bw_lim_events               302046                       # number cycles where commit BW limit reached
system.cpu0.commit.commitNonSpecStalls         197962                       # The number of times commit has been forced to stall to communicate backwards
system.cpu0.commit.commitSquashedInsts       29165786                       # The number of squashed insts skipped by commit
system.cpu0.commit.committedInsts            52854038                       # Number of instructions committed
system.cpu0.commit.committedOps              52919844                       # Number of ops (including micro ops) committed
system.cpu0.commit.committed_per_cycle::samples     96557357                       # Number of insts commited each cycle
system.cpu0.commit.committed_per_cycle::mean     0.548066                       # Number of insts commited each cycle
system.cpu0.commit.committed_per_cycle::stdev     1.043954                       # Number of insts commited each cycle
system.cpu0.commit.committed_per_cycle::underflows            0      0.00%      0.00% # Number of insts commited each cycle
system.cpu0.commit.committed_per_cycle::0     66814577     69.20%     69.20% # Number of insts commited each cycle
system.cpu0.commit.committed_per_cycle::1     15633867     16.19%     85.39% # Number of insts commited each cycle
system.cpu0.commit.committed_per_cycle::2      8866185      9.18%     94.57% # Number of insts commited each cycle
system.cpu0.commit.committed_per_cycle::3      3686587      3.82%     98.39% # Number of insts commited each cycle
system.cpu0.commit.committed_per_cycle::4       559635      0.58%     98.97% # Number of insts commited each cycle
system.cpu0.commit.committed_per_cycle::5       466918      0.48%     99.45% # Number of insts commited each cycle
system.cpu0.commit.committed_per_cycle::6        88446      0.09%     99.54% # Number of insts commited each cycle
system.cpu0.commit.committed_per_cycle::7       139096      0.14%     99.69% # Number of insts commited each cycle
system.cpu0.commit.committed_per_cycle::8       302046      0.31%    100.00% # Number of insts commited each cycle
system.cpu0.commit.committed_per_cycle::overflows            0      0.00%    100.00% # Number of insts commited each cycle
system.cpu0.commit.committed_per_cycle::min_value            0                       # Number of insts commited each cycle
system.cpu0.commit.committed_per_cycle::max_value            8                       # Number of insts commited each cycle
system.cpu0.commit.committed_per_cycle::total     96557357                       # Number of insts commited each cycle
system.cpu0.commit.fp_insts                   5636177                       # Number of committed floating point instructions.
system.cpu0.commit.function_calls             1604004                       # Number of function calls committed.
system.cpu0.commit.int_insts                 50307062                       # Number of committed integer instructions.
system.cpu0.commit.loads                      5139086                       # Number of loads committed
system.cpu0.commit.membars                     131677                       # Number of memory barriers committed
system.cpu0.commit.op_class_0::No_OpClass       131686      0.25%      0.25% # Class of committed instruction
system.cpu0.commit.op_class_0::IntAlu        39931354     75.46%     75.71% # Class of committed instruction
system.cpu0.commit.op_class_0::IntMult           6136      0.01%     75.72% # Class of committed instruction
system.cpu0.commit.op_class_0::IntDiv            8240      0.02%     75.73% # Class of committed instruction
system.cpu0.commit.op_class_0::FloatAdd       1572864      2.97%     78.70% # Class of committed instruction
system.cpu0.commit.op_class_0::FloatCmp       2359302      4.46%     83.16% # Class of committed instruction
system.cpu0.commit.op_class_0::FloatCvt        851984      1.61%     84.77% # Class of committed instruction
system.cpu0.commit.op_class_0::FloatMult       786432      1.49%     86.26% # Class of committed instruction
system.cpu0.commit.op_class_0::FloatMultAcc            0      0.00%     86.26% # Class of committed instruction
system.cpu0.commit.op_class_0::FloatDiv             2      0.00%     86.26% # Class of committed instruction
system.cpu0.commit.op_class_0::FloatMisc            6      0.00%     86.26% # Class of committed instruction
system.cpu0.commit.op_class_0::FloatSqrt            0      0.00%     86.26% # Class of committed instruction
system.cpu0.commit.op_class_0::SimdAdd              0      0.00%     86.26% # Class of committed instruction
system.cpu0.commit.op_class_0::SimdAddAcc            0      0.00%     86.26% # Class of committed instruction
system.cpu0.commit.op_class_0::SimdAlu              0      0.00%     86.26% # Class of committed instruction
system.cpu0.commit.op_class_0::SimdCmp              0      0.00%     86.26% # Class of committed instruction
system.cpu0.commit.op_class_0::SimdCvt              0      0.00%     86.26% # Class of committed instruction
system.cpu0.commit.op_class_0::SimdMisc             0      0.00%     86.26% # Class of committed instruction
system.cpu0.commit.op_class_0::SimdMult             0      0.00%     86.26% # Class of committed instruction
system.cpu0.commit.op_class_0::SimdMultAcc            0      0.00%     86.26% # Class of committed instruction
system.cpu0.commit.op_class_0::SimdShift            0      0.00%     86.26% # Class of committed instruction
system.cpu0.commit.op_class_0::SimdShiftAcc            0      0.00%     86.26% # Class of committed instruction
system.cpu0.commit.op_class_0::SimdDiv              0      0.00%     86.26% # Class of committed instruction
system.cpu0.commit.op_class_0::SimdSqrt             0      0.00%     86.26% # Class of committed instruction
system.cpu0.commit.op_class_0::SimdFloatAdd            0      0.00%     86.26% # Class of committed instruction
system.cpu0.commit.op_class_0::SimdFloatAlu            0      0.00%     86.26% # Class of committed instruction
system.cpu0.commit.op_class_0::SimdFloatCmp            0      0.00%     86.26% # Class of committed instruction
system.cpu0.commit.op_class_0::SimdFloatCvt            0      0.00%     86.26% # Class of committed instruction
system.cpu0.commit.op_class_0::SimdFloatDiv            0      0.00%     86.26% # Class of committed instruction
system.cpu0.commit.op_class_0::SimdFloatMisc            0      0.00%     86.26% # Class of committed instruction
system.cpu0.commit.op_class_0::SimdFloatMult            0      0.00%     86.26% # Class of committed instruction
system.cpu0.commit.op_class_0::SimdFloatMultAcc            0      0.00%     86.26% # Class of committed instruction
system.cpu0.commit.op_class_0::SimdFloatSqrt            0      0.00%     86.26% # Class of committed instruction
system.cpu0.commit.op_class_0::SimdReduceAdd            0      0.00%     86.26% # Class of committed instruction
system.cpu0.commit.op_class_0::SimdReduceAlu            0      0.00%     86.26% # Class of committed instruction
system.cpu0.commit.op_class_0::SimdReduceCmp            0      0.00%     86.26% # Class of committed instruction
system.cpu0.commit.op_class_0::SimdFloatReduceAdd            0      0.00%     86.26% # Class of committed instruction
system.cpu0.commit.op_class_0::SimdFloatReduceCmp            0      0.00%     86.26% # Class of committed instruction
system.cpu0.commit.op_class_0::SimdAes              0      0.00%     86.26% # Class of committed instruction
system.cpu0.commit.op_class_0::SimdAesMix            0      0.00%     86.26% # Class of committed instruction
system.cpu0.commit.op_class_0::SimdSha1Hash            0      0.00%     86.26% # Class of committed instruction
system.cpu0.commit.op_class_0::SimdSha1Hash2            0      0.00%     86.26% # Class of committed instruction
system.cpu0.commit.op_class_0::SimdSha256Hash            0      0.00%     86.26% # Class of committed instruction
system.cpu0.commit.op_class_0::SimdSha256Hash2            0      0.00%     86.26% # Class of committed instruction
system.cpu0.commit.op_class_0::SimdShaSigma2            0      0.00%     86.26% # Class of committed instruction
system.cpu0.commit.op_class_0::SimdShaSigma3            0      0.00%     86.26% # Class of committed instruction
system.cpu0.commit.op_class_0::SimdPredAlu            0      0.00%     86.26% # Class of committed instruction
system.cpu0.commit.op_class_0::MemRead        5139349      9.71%     95.97% # Class of committed instruction
system.cpu0.commit.op_class_0::MemWrite       2066902      3.91%     99.88% # Class of committed instruction
system.cpu0.commit.op_class_0::FloatMemRead        65558      0.12%    100.00% # Class of committed instruction
system.cpu0.commit.op_class_0::FloatMemWrite           29      0.00%    100.00% # Class of committed instruction
system.cpu0.commit.op_class_0::IprAccess            0      0.00%    100.00% # Class of committed instruction
system.cpu0.commit.op_class_0::InstPrefetch            0      0.00%    100.00% # Class of committed instruction
system.cpu0.commit.op_class_0::total         52919844                       # Class of committed instruction
system.cpu0.commit.refs                       7271838                       # Number of memory references committed
system.cpu0.commit.swp_count                        0                       # Number of s/w prefetches committed
system.cpu0.commit.vec_insts                        0                       # Number of committed Vector instructions.
system.cpu0.committedInsts                   52854038                       # Number of Instructions Simulated
system.cpu0.committedOps                     52919844                       # Number of Ops (including micro ops) Simulated
system.cpu0.cpi                              1.922741                       # CPI: Cycles Per Instruction
system.cpu0.cpi_total                        1.922741                       # CPI: Total CPI of All Threads
system.cpu0.decode.BlockedCycles             34419039                       # Number of cycles decode is blocked
system.cpu0.decode.BranchMispred              1301328                       # Number of times decode detected a branch misprediction
system.cpu0.decode.BranchResolved            10845404                       # Number of times decode resolved a branch
system.cpu0.decode.DecodedInsts              88992851                       # Number of instructions handled by decode
system.cpu0.decode.IdleCycles                16359783                       # Number of cycles decode is idle
system.cpu0.decode.RunCycles                 47261855                       # Number of cycles decode is running
system.cpu0.decode.SquashCycles               1530630                       # Number of cycles decode is squashing
system.cpu0.decode.SquashedInsts              2622490                       # Number of squashed instructions handled by decode
system.cpu0.decode.UnblockCycles              1275095                       # Number of cycles decode is unblocking
system.cpu0.dtb.accesses                            0                       # DTB accesses
system.cpu0.dtb.hits                                0                       # DTB hits
system.cpu0.dtb.misses                              0                       # DTB misses
system.cpu0.dtb.read_accesses                       0                       # DTB read accesses
system.cpu0.dtb.read_hits                           0                       # DTB read hits
system.cpu0.dtb.read_misses                         0                       # DTB read misses
system.cpu0.dtb.write_accesses                      0                       # DTB write accesses
system.cpu0.dtb.write_hits                          0                       # DTB write hits
system.cpu0.dtb.write_misses                        0                       # DTB write misses
system.cpu0.fetch.Branches                   16950366                       # Number of branches that fetch encountered
system.cpu0.fetch.CacheLines                 12314819                       # Number of cache lines fetched
system.cpu0.fetch.Cycles                     83720153                       # Number of cycles fetch has run and was not squashing or blocked
system.cpu0.fetch.IcacheSquashes                98401                       # Number of outstanding Icache misses that were squashed
system.cpu0.fetch.IcacheWaitRetryStallCycles          149                       # Number of stall cycles due to full MSHR
system.cpu0.fetch.Insts                     100580881                       # Number of instructions fetch has processed
system.cpu0.fetch.MiscStallCycles                  95                       # Number of cycles fetch has spent waiting on interrupts, or bad addresses, or out of MSHRs
system.cpu0.fetch.PendingTrapStallCycles          120                       # Number of stall cycles due to pending traps
system.cpu0.fetch.SquashCycles                5663516                       # Number of cycles fetch has spent squashing
system.cpu0.fetch.branchRate                 0.166794                       # Number of branch fetches per cycle
system.cpu0.fetch.icacheStallCycles          14294127                       # Number of cycles fetch is stalled on an Icache miss
system.cpu0.fetch.predictedBranches          13432777                       # Number of branches that fetch has predicted taken
system.cpu0.fetch.rate                       0.989729                       # Number of inst fetches per cycle
system.cpu0.fetch.rateDist::samples         100846402                       # Number of instructions fetched each cycle (Total)
system.cpu0.fetch.rateDist::mean             0.998022                       # Number of instructions fetched each cycle (Total)
system.cpu0.fetch.rateDist::stdev            1.287736                       # Number of instructions fetched each cycle (Total)
system.cpu0.fetch.rateDist::underflows              0      0.00%      0.00% # Number of instructions fetched each cycle (Total)
system.cpu0.fetch.rateDist::0                44649623     44.27%     44.27% # Number of instructions fetched each cycle (Total)
system.cpu0.fetch.rateDist::1                32984470     32.71%     76.98% # Number of instructions fetched each cycle (Total)
system.cpu0.fetch.rateDist::2                12690873     12.58%     89.57% # Number of instructions fetched each cycle (Total)
system.cpu0.fetch.rateDist::3                 5052138      5.01%     94.58% # Number of instructions fetched each cycle (Total)
system.cpu0.fetch.rateDist::4                 2077076      2.06%     96.64% # Number of instructions fetched each cycle (Total)
system.cpu0.fetch.rateDist::5                 1543810      1.53%     98.17% # Number of instructions fetched each cycle (Total)
system.cpu0.fetch.rateDist::6                 1844750      1.83%    100.00% # Number of instructions fetched each cycle (Total)
system.cpu0.fetch.rateDist::7                     894      0.00%    100.00% # Number of instructions fetched each cycle (Total)
system.cpu0.fetch.rateDist::8                    2768      0.00%    100.00% # Number of instructions fetched each cycle (Total)
system.cpu0.fetch.rateDist::overflows               0      0.00%    100.00% # Number of instructions fetched each cycle (Total)
system.cpu0.fetch.rateDist::min_value               0                       # Number of instructions fetched each cycle (Total)
system.cpu0.fetch.rateDist::max_value               8                       # Number of instructions fetched each cycle (Total)
system.cpu0.fetch.rateDist::total           100846402                       # Number of instructions fetched each cycle (Total)
system.cpu0.fp_regfile_reads                 12508118                       # number of floating regfile reads
system.cpu0.fp_regfile_writes                 3903696                       # number of floating regfile writes
system.cpu0.idleCycles                         778215                       # Total number of cycles that the CPU has spent unscheduled due to idling
system.cpu0.iew.branchMispredicts             1705827                       # Number of branch mispredicts detected at execute
system.cpu0.iew.exec_branches                11848125                       # Number of branches executed
system.cpu0.iew.exec_nop                            0                       # number of nop insts executed
system.cpu0.iew.exec_rate                    0.740874                       # Inst execution rate
system.cpu0.iew.exec_refs                    11272543                       # number of memory reference insts executed
system.cpu0.iew.exec_stores                   2824809                       # Number of stores executed
system.cpu0.iew.exec_swp                            0                       # number of swp insts executed
system.cpu0.iew.iewBlockCycles               31107721                       # Number of cycles IEW is blocking
system.cpu0.iew.iewDispLoadInsts              8731254                       # Number of dispatched load instructions
system.cpu0.iew.iewDispNonSpecInsts             66476                       # Number of dispatched non-speculative instructions
system.cpu0.iew.iewDispSquashedInsts           410202                       # Number of squashed instructions skipped by dispatch
system.cpu0.iew.iewDispStoreInsts             3516846                       # Number of dispatched store instructions
system.cpu0.iew.iewDispatchedInsts           82085087                       # Number of instructions dispatched to IQ
system.cpu0.iew.iewExecLoadInsts              8447734                       # Number of load instructions executed
system.cpu0.iew.iewExecSquashedInsts          1473511                       # Number of squashed instructions skipped in execute
system.cpu0.iew.iewExecutedInsts             75291082                       # Number of executed instructions
system.cpu0.iew.iewIQFullEvents                138506                       # Number of times the IQ has become full, causing a stall
system.cpu0.iew.iewIdleCycles                       0                       # Number of cycles IEW is idle
system.cpu0.iew.iewLSQFullEvents                91482                       # Number of times the LSQ has become full, causing a stall
system.cpu0.iew.iewSquashCycles               1530630                       # Number of cycles IEW is squashing
system.cpu0.iew.iewUnblockCycles               482782                       # Number of cycles IEW is unblocking
system.cpu0.iew.lsq.thread0.blockedLoads            0                       # Number of blocked loads due to partial load-store forwarding
system.cpu0.iew.lsq.thread0.cacheBlocked         6091                       # Number of times an access to memory failed due to the cache being blocked
system.cpu0.iew.lsq.thread0.forwLoads          306926                       # Number of loads that had data forwarded from stores
system.cpu0.iew.lsq.thread0.ignoredResponses         2117                       # Number of memory responses ignored because the instruction is squashed
system.cpu0.iew.lsq.thread0.invAddrLoads            0                       # Number of loads ignored due to an invalid address
system.cpu0.iew.lsq.thread0.invAddrSwpfs            0                       # Number of software prefetches ignored due to an invalid address
system.cpu0.iew.lsq.thread0.memOrderViolation          372                       # Number of memory ordering violations
system.cpu0.iew.lsq.thread0.rescheduledLoads          119                       # Number of loads that were rescheduled
system.cpu0.iew.lsq.thread0.squashedLoads      3592168                       # Number of loads squashed
system.cpu0.iew.lsq.thread0.squashedStores      1384094                       # Number of stores squashed
system.cpu0.iew.memOrderViolationEvents           372                       # Number of memory order violations
system.cpu0.iew.predictedNotTakenIncorrect        72776                       # Number of branches that were predicted not taken incorrectly
system.cpu0.iew.predictedTakenIncorrect       1633051                       # Number of branches that were predicted taken incorrectly
system.cpu0.iew.wb_consumers                 57887700                       # num instructions consuming a value
system.cpu0.iew.wb_count                     74703210                       # cumulative count of insts written-back
system.cpu0.iew.wb_fanout                    0.819850                       # average fanout of values written-back
system.cpu0.iew.wb_producers                 47459204                       # num instructions producing a value
system.cpu0.iew.wb_rate                      0.735090                       # insts written-back per cycle
system.cpu0.iew.wb_sent                      74807851                       # cumulative count of insts sent to commit
system.cpu0.int_regfile_reads                86235627                       # number of integer regfile reads
system.cpu0.int_regfile_writes               57309462                       # number of integer regfile writes
system.cpu0.ipc                              0.520091                       # IPC: Instructions Per Cycle
system.cpu0.ipc_total                        0.520091                       # IPC: Total IPC of All Threads
system.cpu0.iq.FU_type_0::No_OpClass           131842      0.17%      0.17% # Type of FU issued
system.cpu0.iq.FU_type_0::IntAlu             57909007     75.44%     75.61% # Type of FU issued
system.cpu0.iq.FU_type_0::IntMult                6168      0.01%     75.62% # Type of FU issued
system.cpu0.iq.FU_type_0::IntDiv                 8249      0.01%     75.63% # Type of FU issued
system.cpu0.iq.FU_type_0::FloatAdd            1886174      2.46%     78.08% # Type of FU issued
system.cpu0.iq.FU_type_0::FloatCmp            3425937      4.46%     82.55% # Type of FU issued
system.cpu0.iq.FU_type_0::FloatCvt            1024824      1.34%     83.88% # Type of FU issued
system.cpu0.iq.FU_type_0::FloatMult            942710      1.23%     85.11% # Type of FU issued
system.cpu0.iq.FU_type_0::FloatMultAcc              0      0.00%     85.11% # Type of FU issued
system.cpu0.iq.FU_type_0::FloatDiv                  2      0.00%     85.11% # Type of FU issued
system.cpu0.iq.FU_type_0::FloatMisc                 6      0.00%     85.11% # Type of FU issued
system.cpu0.iq.FU_type_0::FloatSqrt                 0      0.00%     85.11% # Type of FU issued
system.cpu0.iq.FU_type_0::SimdAdd                   0      0.00%     85.11% # Type of FU issued
system.cpu0.iq.FU_type_0::SimdAddAcc                0      0.00%     85.11% # Type of FU issued
system.cpu0.iq.FU_type_0::SimdAlu                   0      0.00%     85.11% # Type of FU issued
system.cpu0.iq.FU_type_0::SimdCmp                   0      0.00%     85.11% # Type of FU issued
system.cpu0.iq.FU_type_0::SimdCvt                   0      0.00%     85.11% # Type of FU issued
system.cpu0.iq.FU_type_0::SimdMisc                  0      0.00%     85.11% # Type of FU issued
system.cpu0.iq.FU_type_0::SimdMult                  0      0.00%     85.11% # Type of FU issued
system.cpu0.iq.FU_type_0::SimdMultAcc               0      0.00%     85.11% # Type of FU issued
system.cpu0.iq.FU_type_0::SimdShift                 0      0.00%     85.11% # Type of FU issued
system.cpu0.iq.FU_type_0::SimdShiftAcc              0      0.00%     85.11% # Type of FU issued
system.cpu0.iq.FU_type_0::SimdDiv                   0      0.00%     85.11% # Type of FU issued
system.cpu0.iq.FU_type_0::SimdSqrt                  0      0.00%     85.11% # Type of FU issued
system.cpu0.iq.FU_type_0::SimdFloatAdd              0      0.00%     85.11% # Type of FU issued
system.cpu0.iq.FU_type_0::SimdFloatAlu              0      0.00%     85.11% # Type of FU issued
system.cpu0.iq.FU_type_0::SimdFloatCmp              0      0.00%     85.11% # Type of FU issued
system.cpu0.iq.FU_type_0::SimdFloatCvt              0      0.00%     85.11% # Type of FU issued
system.cpu0.iq.FU_type_0::SimdFloatDiv              0      0.00%     85.11% # Type of FU issued
system.cpu0.iq.FU_type_0::SimdFloatMisc             0      0.00%     85.11% # Type of FU issued
system.cpu0.iq.FU_type_0::SimdFloatMult             0      0.00%     85.11% # Type of FU issued
system.cpu0.iq.FU_type_0::SimdFloatMultAcc            0      0.00%     85.11% # Type of FU issued
system.cpu0.iq.FU_type_0::SimdFloatSqrt             0      0.00%     85.11% # Type of FU issued
system.cpu0.iq.FU_type_0::SimdReduceAdd             0      0.00%     85.11% # Type of FU issued
system.cpu0.iq.FU_type_0::SimdReduceAlu             0      0.00%     85.11% # Type of FU issued
system.cpu0.iq.FU_type_0::SimdReduceCmp             0      0.00%     85.11% # Type of FU issued
system.cpu0.iq.FU_type_0::SimdFloatReduceAdd            0      0.00%     85.11% # Type of FU issued
system.cpu0.iq.FU_type_0::SimdFloatReduceCmp            0      0.00%     85.11% # Type of FU issued
system.cpu0.iq.FU_type_0::SimdAes                   0      0.00%     85.11% # Type of FU issued
system.cpu0.iq.FU_type_0::SimdAesMix                0      0.00%     85.11% # Type of FU issued
system.cpu0.iq.FU_type_0::SimdSha1Hash              0      0.00%     85.11% # Type of FU issued
system.cpu0.iq.FU_type_0::SimdSha1Hash2             0      0.00%     85.11% # Type of FU issued
system.cpu0.iq.FU_type_0::SimdSha256Hash            0      0.00%     85.11% # Type of FU issued
system.cpu0.iq.FU_type_0::SimdSha256Hash2            0      0.00%     85.11% # Type of FU issued
system.cpu0.iq.FU_type_0::SimdShaSigma2             0      0.00%     85.11% # Type of FU issued
system.cpu0.iq.FU_type_0::SimdShaSigma3             0      0.00%     85.11% # Type of FU issued
system.cpu0.iq.FU_type_0::SimdPredAlu               0      0.00%     85.11% # Type of FU issued
system.cpu0.iq.FU_type_0::MemRead             8546785     11.13%     96.24% # Type of FU issued
system.cpu0.iq.FU_type_0::MemWrite            2816651      3.67%     99.91% # Type of FU issued
system.cpu0.iq.FU_type_0::FloatMemRead          66210      0.09%    100.00% # Type of FU issued
system.cpu0.iq.FU_type_0::FloatMemWrite            29      0.00%    100.00% # Type of FU issued
system.cpu0.iq.FU_type_0::IprAccess                 0      0.00%    100.00% # Type of FU issued
system.cpu0.iq.FU_type_0::InstPrefetch              0      0.00%    100.00% # Type of FU issued
system.cpu0.iq.FU_type_0::total              76764594                       # Type of FU issued
system.cpu0.iq.fp_alu_accesses                7345952                       # Number of floating point alu accesses
system.cpu0.iq.fp_inst_queue_reads           14691844                       # Number of floating instruction queue reads
system.cpu0.iq.fp_inst_queue_wakeup_accesses      7329538                       # Number of floating instruction queue wakeup accesses
system.cpu0.iq.fp_inst_queue_writes           9551197                       # Number of floating instruction queue writes
system.cpu0.iq.fu_busy_cnt                     520438                       # FU busy when requested
system.cpu0.iq.fu_busy_rate                  0.006780                       # FU busy rate (busy events/executed inst)
system.cpu0.iq.fu_full::No_OpClass                  0      0.00%      0.00% # attempts to use FU when none available
system.cpu0.iq.fu_full::IntAlu                 477589     91.77%     91.77% # attempts to use FU when none available
system.cpu0.iq.fu_full::IntMult                  5914      1.14%     92.90% # attempts to use FU when none available
system.cpu0.iq.fu_full::IntDiv                  11665      2.24%     95.14% # attempts to use FU when none available
system.cpu0.iq.fu_full::FloatAdd                    0      0.00%     95.14% # attempts to use FU when none available
system.cpu0.iq.fu_full::FloatCmp                    0      0.00%     95.14% # attempts to use FU when none available
system.cpu0.iq.fu_full::FloatCvt                   53      0.01%     95.15% # attempts to use FU when none available
system.cpu0.iq.fu_full::FloatMult                   0      0.00%     95.15% # attempts to use FU when none available
system.cpu0.iq.fu_full::FloatMultAcc                0      0.00%     95.15% # attempts to use FU when none available
system.cpu0.iq.fu_full::FloatDiv                    0      0.00%     95.15% # attempts to use FU when none available
system.cpu0.iq.fu_full::FloatMisc                   0      0.00%     95.15% # attempts to use FU when none available
system.cpu0.iq.fu_full::FloatSqrt                   0      0.00%     95.15% # attempts to use FU when none available
system.cpu0.iq.fu_full::SimdAdd                     0      0.00%     95.15% # attempts to use FU when none available
system.cpu0.iq.fu_full::SimdAddAcc                  0      0.00%     95.15% # attempts to use FU when none available
system.cpu0.iq.fu_full::SimdAlu                     0      0.00%     95.15% # attempts to use FU when none available
system.cpu0.iq.fu_full::SimdCmp                     0      0.00%     95.15% # attempts to use FU when none available
system.cpu0.iq.fu_full::SimdCvt                     0      0.00%     95.15% # attempts to use FU when none available
system.cpu0.iq.fu_full::SimdMisc                    0      0.00%     95.15% # attempts to use FU when none available
system.cpu0.iq.fu_full::SimdMult                    0      0.00%     95.15% # attempts to use FU when none available
system.cpu0.iq.fu_full::SimdMultAcc                 0      0.00%     95.15% # attempts to use FU when none available
system.cpu0.iq.fu_full::SimdShift                   0      0.00%     95.15% # attempts to use FU when none available
system.cpu0.iq.fu_full::SimdShiftAcc                0      0.00%     95.15% # attempts to use FU when none available
system.cpu0.iq.fu_full::SimdDiv                     0      0.00%     95.15% # attempts to use FU when none available
system.cpu0.iq.fu_full::SimdSqrt                    0      0.00%     95.15% # attempts to use FU when none available
system.cpu0.iq.fu_full::SimdFloatAdd                0      0.00%     95.15% # attempts to use FU when none available
system.cpu0.iq.fu_full::SimdFloatAlu                0      0.00%     95.15% # attempts to use FU when none available
system.cpu0.iq.fu_full::SimdFloatCmp                0      0.00%     95.15% # attempts to use FU when none available
system.cpu0.iq.fu_full::SimdFloatCvt                0      0.00%     95.15% # attempts to use FU when none available
system.cpu0.iq.fu_full::SimdFloatDiv                0      0.00%     95.15% # attempts to use FU when none available
system.cpu0.iq.fu_full::SimdFloatMisc               0      0.00%     95.15% # attempts to use FU when none available
system.cpu0.iq.fu_full::SimdFloatMult               0      0.00%     95.15% # attempts to use FU when none available
system.cpu0.iq.fu_full::SimdFloatMultAcc            0      0.00%     95.15% # attempts to use FU when none available
system.cpu0.iq.fu_full::SimdFloatSqrt               0      0.00%     95.15% # attempts to use FU when none available
system.cpu0.iq.fu_full::SimdReduceAdd               0      0.00%     95.15% # attempts to use FU when none available
system.cpu0.iq.fu_full::SimdReduceAlu               0      0.00%     95.15% # attempts to use FU when none available
system.cpu0.iq.fu_full::SimdReduceCmp               0      0.00%     95.15% # attempts to use FU when none available
system.cpu0.iq.fu_full::SimdFloatReduceAdd            0      0.00%     95.15% # attempts to use FU when none available
system.cpu0.iq.fu_full::SimdFloatReduceCmp            0      0.00%     95.15% # attempts to use FU when none available
system.cpu0.iq.fu_full::SimdAes                     0      0.00%     95.15% # attempts to use FU when none available
system.cpu0.iq.fu_full::SimdAesMix                  0      0.00%     95.15% # attempts to use FU when none available
system.cpu0.iq.fu_full::SimdSha1Hash                0      0.00%     95.15% # attempts to use FU when none available
system.cpu0.iq.fu_full::SimdSha1Hash2               0      0.00%     95.15% # attempts to use FU when none available
system.cpu0.iq.fu_full::SimdSha256Hash              0      0.00%     95.15% # attempts to use FU when none available
system.cpu0.iq.fu_full::SimdSha256Hash2             0      0.00%     95.15% # attempts to use FU when none available
system.cpu0.iq.fu_full::SimdShaSigma2               0      0.00%     95.15% # attempts to use FU when none available
system.cpu0.iq.fu_full::SimdShaSigma3               0      0.00%     95.15% # attempts to use FU when none available
system.cpu0.iq.fu_full::SimdPredAlu                 0      0.00%     95.15% # attempts to use FU when none available
system.cpu0.iq.fu_full::MemRead                 22170      4.26%     99.41% # attempts to use FU when none available
system.cpu0.iq.fu_full::MemWrite                 3040      0.58%    100.00% # attempts to use FU when none available
system.cpu0.iq.fu_full::FloatMemRead                3      0.00%    100.00% # attempts to use FU when none available
system.cpu0.iq.fu_full::FloatMemWrite               4      0.00%    100.00% # attempts to use FU when none available
system.cpu0.iq.fu_full::IprAccess                   0      0.00%    100.00% # attempts to use FU when none available
system.cpu0.iq.fu_full::InstPrefetch                0      0.00%    100.00% # attempts to use FU when none available
system.cpu0.iq.int_alu_accesses              69807238                       # Number of integer alu accesses
system.cpu0.iq.int_inst_queue_reads         240543341                       # Number of integer instruction queue reads
system.cpu0.iq.int_inst_queue_wakeup_accesses     67373672                       # Number of integer instruction queue wakeup accesses
system.cpu0.iq.int_inst_queue_writes        101699373                       # Number of integer instruction queue writes
system.cpu0.iq.iqInstsAdded                  81886822                       # Number of instructions added to the IQ (excludes non-spec)
system.cpu0.iq.iqInstsIssued                 76764594                       # Number of instructions issued
system.cpu0.iq.iqNonSpecInstsAdded             198265                       # Number of non-speculative instructions added to the IQ
system.cpu0.iq.iqSquashedInstsExamined       29165239                       # Number of squashed instructions iterated over during squash; mainly for profiling
system.cpu0.iq.iqSquashedInstsIssued           339158                       # Number of squashed instructions issued
system.cpu0.iq.iqSquashedNonSpecRemoved           303                       # Number of squashed non-spec instructions that were removed
system.cpu0.iq.iqSquashedOperandsExamined      8950627                       # Number of squashed operands that are examined and possibly removed from graph
system.cpu0.iq.issued_per_cycle::samples    100846402                       # Number of insts issued each cycle
system.cpu0.iq.issued_per_cycle::mean        0.761203                       # Number of insts issued each cycle
system.cpu0.iq.issued_per_cycle::stdev       1.170198                       # Number of insts issued each cycle
system.cpu0.iq.issued_per_cycle::underflows            0      0.00%      0.00% # Number of insts issued each cycle
system.cpu0.iq.issued_per_cycle::0           56843331     56.37%     56.37% # Number of insts issued each cycle
system.cpu0.iq.issued_per_cycle::1           25539134     25.32%     81.69% # Number of insts issued each cycle
system.cpu0.iq.issued_per_cycle::2           11562831     11.47%     93.16% # Number of insts issued each cycle
system.cpu0.iq.issued_per_cycle::3            2953835      2.93%     96.09% # Number of insts issued each cycle
system.cpu0.iq.issued_per_cycle::4            1895865      1.88%     97.97% # Number of insts issued each cycle
system.cpu0.iq.issued_per_cycle::5            1135615      1.13%     99.09% # Number of insts issued each cycle
system.cpu0.iq.issued_per_cycle::6             531278      0.53%     99.62% # Number of insts issued each cycle
system.cpu0.iq.issued_per_cycle::7             287014      0.28%     99.90% # Number of insts issued each cycle
system.cpu0.iq.issued_per_cycle::8              97499      0.10%    100.00% # Number of insts issued each cycle
system.cpu0.iq.issued_per_cycle::overflows            0      0.00%    100.00% # Number of insts issued each cycle
system.cpu0.iq.issued_per_cycle::min_value            0                       # Number of insts issued each cycle
system.cpu0.iq.issued_per_cycle::max_value            8                       # Number of insts issued each cycle
system.cpu0.iq.issued_per_cycle::total      100846402                       # Number of insts issued each cycle
system.cpu0.iq.rate                          0.755374                       # Inst issue rate
system.cpu0.iq.vec_alu_accesses                     0                       # Number of vector alu accesses
system.cpu0.iq.vec_inst_queue_reads                 0                       # Number of vector instruction queue reads
system.cpu0.iq.vec_inst_queue_wakeup_accesses            0                       # Number of vector instruction queue wakeup accesses
system.cpu0.iq.vec_inst_queue_writes                0                       # Number of vector instruction queue writes
system.cpu0.itb.accesses                            0                       # DTB accesses
system.cpu0.itb.hits                                0                       # DTB hits
system.cpu0.itb.misses                              0                       # DTB misses
system.cpu0.itb.read_accesses                       0                       # DTB read accesses
system.cpu0.itb.read_hits                           0                       # DTB read hits
system.cpu0.itb.read_misses                         0                       # DTB read misses
system.cpu0.itb.write_accesses                      0                       # DTB write accesses
system.cpu0.itb.write_hits                          0                       # DTB write hits
system.cpu0.itb.write_misses                        0                       # DTB write misses
system.cpu0.memDep0.conflictingLoads           504027                       # Number of conflicting loads.
system.cpu0.memDep0.conflictingStores          157414                       # Number of conflicting stores.
system.cpu0.memDep0.insertedLoads             8731254                       # Number of loads inserted to the mem dependence unit.
system.cpu0.memDep0.insertedStores            3516846                       # Number of stores inserted to the mem dependence unit.
system.cpu0.misc_regfile_reads               11035312                       # number of misc regfile reads
system.cpu0.misc_regfile_writes               5570590                       # number of misc regfile writes
system.cpu0.numCycles                       101624617                       # number of cpu cycles simulated
system.cpu0.numWorkItemsCompleted                   0                       # number of work items this cpu completed
system.cpu0.numWorkItemsStarted                     0                       # number of work items this cpu started
system.cpu0.quiesceCycles                     1287539                       # Total number of cycles that CPU has spent quiesced or waiting for an interrupt
system.cpu0.rename.BlockCycles               32960862                       # Number of cycles rename is blocking
system.cpu0.rename.CommittedMaps             43416142                       # Number of HB maps that are committed
system.cpu0.rename.IQFullEvents               1115758                       # Number of times rename has blocked due to IQ full
system.cpu0.rename.IdleCycles                19234069                       # Number of cycles rename is idle
system.cpu0.rename.LQFullEvents                 95410                       # Number of times rename has blocked due to LQ full
system.cpu0.rename.ROBFullEvents                 6900                       # Number of times rename has blocked due to ROB full
system.cpu0.rename.RenameLookups            113091064                       # Number of register rename lookups that rename has made
system.cpu0.rename.RenamedInsts              85982563                       # Number of instructions processed by rename
system.cpu0.rename.RenamedOperands           69714385                       # Number of destination operands rename has renamed
system.cpu0.rename.RunCycles                 45424009                       # Number of cycles rename is running
system.cpu0.rename.SQFullEvents                127192                       # Number of times rename has blocked due to SQ full
system.cpu0.rename.SquashCycles               1530630                       # Number of cycles rename is squashing
system.cpu0.rename.UnblockCycles              1672908                       # Number of cycles rename is unblocking
system.cpu0.rename.UndoneMaps                26298238                       # Number of HB maps that are undone due to squashing
system.cpu0.rename.fp_rename_lookups         13028632                       # Number of floating rename lookups
system.cpu0.rename.int_rename_lookups       100062432                       # Number of integer rename lookups
system.cpu0.rename.serializeStallCycles         23924                       # count of cycles rename stalled for serializing inst
system.cpu0.rename.serializingInsts               549                       # count of serializing insts renamed
system.cpu0.rename.skidInsts                  2746267                       # count of insts added to the skid buffer
system.cpu0.rename.tempSerializingInsts           548                       # count of temporary serializing insts renamed
system.cpu0.rob.rob_reads                   178339277                       # The number of ROB reads
system.cpu0.rob.rob_writes                  168460527                       # The number of ROB writes
system.cpu0.timesIdled                          10475                       # Number of times that the entire CPU went into an idle state and unscheduled itself
system.cpu0.workload.numSyscalls                  136                       # Number of system calls
system.cpu1.branchPred.BTBCorrect                   0                       # Number of correct BTB predictions (this stat may not work properly.
system.cpu1.branchPred.BTBHitPct            95.100215                       # BTB Hit Percentage
system.cpu1.branchPred.BTBHits                1019752                       # Number of BTB hits
system.cpu1.branchPred.BTBLookups             1072292                       # Number of BTB lookups
system.cpu1.branchPred.RASInCorrect                 0                       # Number of incorrect RAS predictions.
system.cpu1.branchPred.condIncorrect           181206                       # Number of conditional branches incorrect
system.cpu1.branchPred.condPredicted          1331706                       # Number of conditional branches predicted
system.cpu1.branchPred.indirectHits             10828                       # Number of indirect target hits.
system.cpu1.branchPred.indirectLookups          13657                       # Number of indirect predictor lookups.
system.cpu1.branchPred.indirectMisses            2829                       # Number of indirect misses.
system.cpu1.branchPred.lookups                1636632                       # Number of BP lookups
system.cpu1.branchPred.usedRAS                      0                       # Number of times the RAS was used to get a target.
system.cpu1.branchPredindirectMispredicted         1808                       # Number of mispredicted indirect branches.
system.cpu1.commit.amos                         65655                       # Number of atomic instructions committed
system.cpu1.commit.branchMispredicts           174468                       # The number of times a branch was mispredicted
system.cpu1.commit.branches                    928086                       # Number of branches committed
system.cpu1.commit.bw_lim_events                23738                       # number cycles where commit BW limit reached
system.cpu1.commit.commitNonSpecStalls         197208                       # The number of times commit has been forced to stall to communicate backwards
system.cpu1.commit.commitSquashedInsts        1540493                       # The number of squashed insts skipped by commit
system.cpu1.commit.committedInsts             3806913                       # Number of instructions committed
system.cpu1.commit.committedOps               3872631                       # Number of ops (including micro ops) committed
system.cpu1.commit.committed_per_cycle::samples     23055120                       # Number of insts commited each cycle
system.cpu1.commit.committed_per_cycle::mean     0.167973                       # Number of insts commited each cycle
system.cpu1.commit.committed_per_cycle::stdev     0.657897                       # Number of insts commited each cycle
system.cpu1.commit.committed_per_cycle::underflows            0      0.00%      0.00% # Number of insts commited each cycle
system.cpu1.commit.committed_per_cycle::0     21034288     91.23%     91.23% # Number of insts commited each cycle
system.cpu1.commit.committed_per_cycle::1      1063604      4.61%     95.85% # Number of insts commited each cycle
system.cpu1.commit.committed_per_cycle::2       390931      1.70%     97.54% # Number of insts commited each cycle
system.cpu1.commit.committed_per_cycle::3       383670      1.66%     99.21% # Number of insts commited each cycle
system.cpu1.commit.committed_per_cycle::4       120792      0.52%     99.73% # Number of insts commited each cycle
system.cpu1.commit.committed_per_cycle::5        28569      0.12%     99.86% # Number of insts commited each cycle
system.cpu1.commit.committed_per_cycle::6         6458      0.03%     99.88% # Number of insts commited each cycle
system.cpu1.commit.committed_per_cycle::7         3070      0.01%     99.90% # Number of insts commited each cycle
system.cpu1.commit.committed_per_cycle::8        23738      0.10%    100.00% # Number of insts commited each cycle
system.cpu1.commit.committed_per_cycle::overflows            0      0.00%    100.00% # Number of insts commited each cycle
system.cpu1.commit.committed_per_cycle::min_value            0                       # Number of insts commited each cycle
system.cpu1.commit.committed_per_cycle::max_value            8                       # Number of insts commited each cycle
system.cpu1.commit.committed_per_cycle::total     23055120                       # Number of insts commited each cycle
system.cpu1.commit.fp_insts                        24                       # Number of committed floating point instructions.
system.cpu1.commit.function_calls               17131                       # Number of function calls committed.
system.cpu1.commit.int_insts                  3592595                       # Number of committed integer instructions.
system.cpu1.commit.loads                       987238                       # Number of loads committed
system.cpu1.commit.membars                     131328                       # Number of memory barriers committed
system.cpu1.commit.op_class_0::No_OpClass       131328      3.39%      3.39% # Class of committed instruction
system.cpu1.commit.op_class_0::IntAlu         2333325     60.25%     63.64% # Class of committed instruction
system.cpu1.commit.op_class_0::IntMult            638      0.02%     63.66% # Class of committed instruction
system.cpu1.commit.op_class_0::IntDiv              30      0.00%     63.66% # Class of committed instruction
system.cpu1.commit.op_class_0::FloatAdd             0      0.00%     63.66% # Class of committed instruction
system.cpu1.commit.op_class_0::FloatCmp             0      0.00%     63.66% # Class of committed instruction
system.cpu1.commit.op_class_0::FloatCvt             0      0.00%     63.66% # Class of committed instruction
system.cpu1.commit.op_class_0::FloatMult            0      0.00%     63.66% # Class of committed instruction
system.cpu1.commit.op_class_0::FloatMultAcc            0      0.00%     63.66% # Class of committed instruction
system.cpu1.commit.op_class_0::FloatDiv             0      0.00%     63.66% # Class of committed instruction
system.cpu1.commit.op_class_0::FloatMisc            0      0.00%     63.66% # Class of committed instruction
system.cpu1.commit.op_class_0::FloatSqrt            0      0.00%     63.66% # Class of committed instruction
system.cpu1.commit.op_class_0::SimdAdd              0      0.00%     63.66% # Class of committed instruction
system.cpu1.commit.op_class_0::SimdAddAcc            0      0.00%     63.66% # Class of committed instruction
system.cpu1.commit.op_class_0::SimdAlu              0      0.00%     63.66% # Class of committed instruction
system.cpu1.commit.op_class_0::SimdCmp              0      0.00%     63.66% # Class of committed instruction
system.cpu1.commit.op_class_0::SimdCvt              0      0.00%     63.66% # Class of committed instruction
system.cpu1.commit.op_class_0::SimdMisc             0      0.00%     63.66% # Class of committed instruction
system.cpu1.commit.op_class_0::SimdMult             0      0.00%     63.66% # Class of committed instruction
system.cpu1.commit.op_class_0::SimdMultAcc            0      0.00%     63.66% # Class of committed instruction
system.cpu1.commit.op_class_0::SimdShift            0      0.00%     63.66% # Class of committed instruction
system.cpu1.commit.op_class_0::SimdShiftAcc            0      0.00%     63.66% # Class of committed instruction
system.cpu1.commit.op_class_0::SimdDiv              0      0.00%     63.66% # Class of committed instruction
system.cpu1.commit.op_class_0::SimdSqrt             0      0.00%     63.66% # Class of committed instruction
system.cpu1.commit.op_class_0::SimdFloatAdd            0      0.00%     63.66% # Class of committed instruction
system.cpu1.commit.op_class_0::SimdFloatAlu            0      0.00%     63.66% # Class of committed instruction
system.cpu1.commit.op_class_0::SimdFloatCmp            0      0.00%     63.66% # Class of committed instruction
system.cpu1.commit.op_class_0::SimdFloatCvt            0      0.00%     63.66% # Class of committed instruction
system.cpu1.commit.op_class_0::SimdFloatDiv            0      0.00%     63.66% # Class of committed instruction
system.cpu1.commit.op_class_0::SimdFloatMisc            0      0.00%     63.66% # Class of committed instruction
system.cpu1.commit.op_class_0::SimdFloatMult            0      0.00%     63.66% # Class of committed instruction
system.cpu1.commit.op_class_0::SimdFloatMultAcc            0      0.00%     63.66% # Class of committed instruction
system.cpu1.commit.op_class_0::SimdFloatSqrt            0      0.00%     63.66% # Class of committed instruction
system.cpu1.commit.op_class_0::SimdReduceAdd            0      0.00%     63.66% # Class of committed instruction
system.cpu1.commit.op_class_0::SimdReduceAlu            0      0.00%     63.66% # Class of committed instruction
system.cpu1.commit.op_class_0::SimdReduceCmp            0      0.00%     63.66% # Class of committed instruction
system.cpu1.commit.op_class_0::SimdFloatReduceAdd            0      0.00%     63.66% # Class of committed instruction
system.cpu1.commit.op_class_0::SimdFloatReduceCmp            0      0.00%     63.66% # Class of committed instruction
system.cpu1.commit.op_class_0::SimdAes              0      0.00%     63.66% # Class of committed instruction
system.cpu1.commit.op_class_0::SimdAesMix            0      0.00%     63.66% # Class of committed instruction
system.cpu1.commit.op_class_0::SimdSha1Hash            0      0.00%     63.66% # Class of committed instruction
system.cpu1.commit.op_class_0::SimdSha1Hash2            0      0.00%     63.66% # Class of committed instruction
system.cpu1.commit.op_class_0::SimdSha256Hash            0      0.00%     63.66% # Class of committed instruction
system.cpu1.commit.op_class_0::SimdSha256Hash2            0      0.00%     63.66% # Class of committed instruction
system.cpu1.commit.op_class_0::SimdShaSigma2            0      0.00%     63.66% # Class of committed instruction
system.cpu1.commit.op_class_0::SimdShaSigma3            0      0.00%     63.66% # Class of committed instruction
system.cpu1.commit.op_class_0::SimdPredAlu            0      0.00%     63.66% # Class of committed instruction
system.cpu1.commit.op_class_0::MemRead        1052887     27.19%     90.85% # Class of committed instruction
system.cpu1.commit.op_class_0::MemWrite        354399      9.15%    100.00% # Class of committed instruction
system.cpu1.commit.op_class_0::FloatMemRead            6      0.00%    100.00% # Class of committed instruction
system.cpu1.commit.op_class_0::FloatMemWrite           18      0.00%    100.00% # Class of committed instruction
system.cpu1.commit.op_class_0::IprAccess            0      0.00%    100.00% # Class of committed instruction
system.cpu1.commit.op_class_0::InstPrefetch            0      0.00%    100.00% # Class of committed instruction
system.cpu1.commit.op_class_0::total          3872631                       # Class of committed instruction
system.cpu1.commit.refs                       1407310                       # Number of memory references committed
system.cpu1.commit.swp_count                        0                       # Number of s/w prefetches committed
system.cpu1.commit.vec_insts                        0                       # Number of committed Vector instructions.
system.cpu1.committedInsts                    3806913                       # Number of Instructions Simulated
system.cpu1.committedOps                      3872631                       # Number of Ops (including micro ops) Simulated
system.cpu1.cpi                              6.151325                       # CPI: Cycles Per Instruction
system.cpu1.cpi_total                        6.151325                       # CPI: Total CPI of All Threads
system.cpu1.decode.BlockedCycles             18673290                       # Number of cycles decode is blocked
system.cpu1.decode.BranchMispred                 6881                       # Number of times decode detected a branch misprediction
system.cpu1.decode.BranchResolved              941864                       # Number of times decode resolved a branch
system.cpu1.decode.DecodedInsts               6092103                       # Number of instructions handled by decode
system.cpu1.decode.IdleCycles                 1022692                       # Number of cycles decode is idle
system.cpu1.decode.RunCycles                  3273328                       # Number of cycles decode is running
system.cpu1.decode.SquashCycles                174666                       # Number of cycles decode is squashing
system.cpu1.decode.SquashedInsts                12787                       # Number of squashed instructions handled by decode
system.cpu1.decode.UnblockCycles               196415                       # Number of cycles decode is unblocking
system.cpu1.dtb.accesses                            0                       # DTB accesses
system.cpu1.dtb.hits                                0                       # DTB hits
system.cpu1.dtb.misses                              0                       # DTB misses
system.cpu1.dtb.read_accesses                       0                       # DTB read accesses
system.cpu1.dtb.read_hits                           0                       # DTB read hits
system.cpu1.dtb.read_misses                         0                       # DTB read misses
system.cpu1.dtb.write_accesses                      0                       # DTB write accesses
system.cpu1.dtb.write_hits                          0                       # DTB write hits
system.cpu1.dtb.write_misses                        0                       # DTB write misses
system.cpu1.fetch.Branches                    1636632                       # Number of branches that fetch encountered
system.cpu1.fetch.CacheLines                   789016                       # Number of cache lines fetched
system.cpu1.fetch.Cycles                     22266545                       # Number of cycles fetch has run and was not squashing or blocked
system.cpu1.fetch.IcacheSquashes                54754                       # Number of outstanding Icache misses that were squashed
system.cpu1.fetch.IcacheWaitRetryStallCycles           52                       # Number of stall cycles due to full MSHR
system.cpu1.fetch.Insts                       6381543                       # Number of instructions fetch has processed
system.cpu1.fetch.MiscStallCycles                   4                       # Number of cycles fetch has spent waiting on interrupts, or bad addresses, or out of MSHRs
system.cpu1.fetch.SquashCycles                 362808                       # Number of cycles fetch has spent squashing
system.cpu1.fetch.branchRate                 0.069889                       # Number of branch fetches per cycle
system.cpu1.fetch.icacheStallCycles            892386                       # Number of cycles fetch is stalled on an Icache miss
system.cpu1.fetch.predictedBranches           1030580                       # Number of branches that fetch has predicted taken
system.cpu1.fetch.rate                       0.272511                       # Number of inst fetches per cycle
system.cpu1.fetch.rateDist::samples          23340391                       # Number of instructions fetched each cycle (Total)
system.cpu1.fetch.rateDist::mean             0.276240                       # Number of instructions fetched each cycle (Total)
system.cpu1.fetch.rateDist::stdev            0.681024                       # Number of instructions fetched each cycle (Total)
system.cpu1.fetch.rateDist::underflows              0      0.00%      0.00% # Number of instructions fetched each cycle (Total)
system.cpu1.fetch.rateDist::0                18885872     80.91%     80.91% # Number of instructions fetched each cycle (Total)
system.cpu1.fetch.rateDist::1                 3166621     13.57%     94.48% # Number of instructions fetched each cycle (Total)
system.cpu1.fetch.rateDist::2                  844178      3.62%     98.10% # Number of instructions fetched each cycle (Total)
system.cpu1.fetch.rateDist::3                  277509      1.19%     99.29% # Number of instructions fetched each cycle (Total)
system.cpu1.fetch.rateDist::4                   90258      0.39%     99.67% # Number of instructions fetched each cycle (Total)
system.cpu1.fetch.rateDist::5                   60422      0.26%     99.93% # Number of instructions fetched each cycle (Total)
system.cpu1.fetch.rateDist::6                   13482      0.06%     99.99% # Number of instructions fetched each cycle (Total)
system.cpu1.fetch.rateDist::7                     392      0.00%     99.99% # Number of instructions fetched each cycle (Total)
system.cpu1.fetch.rateDist::8                    1657      0.01%    100.00% # Number of instructions fetched each cycle (Total)
system.cpu1.fetch.rateDist::overflows               0      0.00%    100.00% # Number of instructions fetched each cycle (Total)
system.cpu1.fetch.rateDist::min_value               0                       # Number of instructions fetched each cycle (Total)
system.cpu1.fetch.rateDist::max_value               8                       # Number of instructions fetched each cycle (Total)
system.cpu1.fetch.rateDist::total            23340391                       # Number of instructions fetched each cycle (Total)
system.cpu1.fp_regfile_reads                       18                       # number of floating regfile reads
system.cpu1.fp_regfile_writes                      11                       # number of floating regfile writes
system.cpu1.idleCycles                          77170                       # Total number of cycles that the CPU has spent unscheduled due to idling
system.cpu1.iew.branchMispredicts              181383                       # Number of branch mispredicts detected at execute
system.cpu1.iew.exec_branches                 1116319                       # Number of branches executed
system.cpu1.iew.exec_nop                            0                       # number of nop insts executed
system.cpu1.iew.exec_rate                    0.206868                       # Inst execution rate
system.cpu1.iew.exec_refs                     1696716                       # number of memory reference insts executed
system.cpu1.iew.exec_stores                    526141                       # Number of stores executed
system.cpu1.iew.exec_swp                            0                       # number of swp insts executed
system.cpu1.iew.iewBlockCycles               17025527                       # Number of cycles IEW is blocking
system.cpu1.iew.iewDispLoadInsts              1314791                       # Number of dispatched load instructions
system.cpu1.iew.iewDispNonSpecInsts             66021                       # Number of dispatched non-speculative instructions
system.cpu1.iew.iewDispSquashedInsts           164066                       # Number of squashed instructions skipped by dispatch
system.cpu1.iew.iewDispStoreInsts              617518                       # Number of dispatched store instructions
system.cpu1.iew.iewDispatchedInsts            5412596                       # Number of instructions dispatched to IQ
system.cpu1.iew.iewExecLoadInsts              1170575                       # Number of load instructions executed
system.cpu1.iew.iewExecSquashedInsts           220483                       # Number of squashed instructions skipped in execute
system.cpu1.iew.iewExecutedInsts              4844354                       # Number of executed instructions
system.cpu1.iew.iewIQFullEvents                 45222                       # Number of times the IQ has become full, causing a stall
system.cpu1.iew.iewIdleCycles                       0                       # Number of cycles IEW is idle
system.cpu1.iew.iewLSQFullEvents                55064                       # Number of times the LSQ has become full, causing a stall
system.cpu1.iew.iewSquashCycles                174666                       # Number of cycles IEW is squashing
system.cpu1.iew.iewUnblockCycles               213656                       # Number of cycles IEW is unblocking
system.cpu1.iew.lsq.thread0.blockedLoads            0                       # Number of blocked loads due to partial load-store forwarding
system.cpu1.iew.lsq.thread0.cacheBlocked         3276                       # Number of times an access to memory failed due to the cache being blocked
system.cpu1.iew.lsq.thread0.forwLoads           39408                       # Number of loads that had data forwarded from stores
system.cpu1.iew.lsq.thread0.ignoredResponses         1962                       # Number of memory responses ignored because the instruction is squashed
system.cpu1.iew.lsq.thread0.invAddrLoads            0                       # Number of loads ignored due to an invalid address
system.cpu1.iew.lsq.thread0.invAddrSwpfs            0                       # Number of software prefetches ignored due to an invalid address
system.cpu1.iew.lsq.thread0.memOrderViolation          301                       # Number of memory ordering violations
system.cpu1.iew.lsq.thread0.rescheduledLoads          114                       # Number of loads that were rescheduled
system.cpu1.iew.lsq.thread0.squashedLoads       327553                       # Number of loads squashed
system.cpu1.iew.lsq.thread0.squashedStores       197446                       # Number of stores squashed
system.cpu1.iew.memOrderViolationEvents           301                       # Number of memory order violations
system.cpu1.iew.predictedNotTakenIncorrect        86669                       # Number of branches that were predicted not taken incorrectly
system.cpu1.iew.predictedTakenIncorrect         94714                       # Number of branches that were predicted taken incorrectly
system.cpu1.iew.wb_consumers                  2201847                       # num instructions consuming a value
system.cpu1.iew.wb_count                      4738169                       # cumulative count of insts written-back
system.cpu1.iew.wb_fanout                    0.785660                       # average fanout of values written-back
system.cpu1.iew.wb_producers                  1729903                       # num instructions producing a value
system.cpu1.iew.wb_rate                      0.202334                       # insts written-back per cycle
system.cpu1.iew.wb_sent                       4744104                       # cumulative count of insts sent to commit
system.cpu1.int_regfile_reads                 6087938                       # number of integer regfile reads
system.cpu1.int_regfile_writes                3046496                       # number of integer regfile writes
system.cpu1.ipc                              0.162567                       # IPC: Instructions Per Cycle
system.cpu1.ipc_total                        0.162567                       # IPC: Total IPC of All Threads
system.cpu1.iq.FU_type_0::No_OpClass           131405      2.59%      2.59% # Type of FU issued
system.cpu1.iq.FU_type_0::IntAlu              3154541     62.28%     64.88% # Type of FU issued
system.cpu1.iq.FU_type_0::IntMult                 642      0.01%     64.89% # Type of FU issued
system.cpu1.iq.FU_type_0::IntDiv                   30      0.00%     64.89% # Type of FU issued
system.cpu1.iq.FU_type_0::FloatAdd                  0      0.00%     64.89% # Type of FU issued
system.cpu1.iq.FU_type_0::FloatCmp                  0      0.00%     64.89% # Type of FU issued
system.cpu1.iq.FU_type_0::FloatCvt                  0      0.00%     64.89% # Type of FU issued
system.cpu1.iq.FU_type_0::FloatMult                 0      0.00%     64.89% # Type of FU issued
system.cpu1.iq.FU_type_0::FloatMultAcc              0      0.00%     64.89% # Type of FU issued
system.cpu1.iq.FU_type_0::FloatDiv                  0      0.00%     64.89% # Type of FU issued
system.cpu1.iq.FU_type_0::FloatMisc                 0      0.00%     64.89% # Type of FU issued
system.cpu1.iq.FU_type_0::FloatSqrt                 0      0.00%     64.89% # Type of FU issued
system.cpu1.iq.FU_type_0::SimdAdd                   0      0.00%     64.89% # Type of FU issued
system.cpu1.iq.FU_type_0::SimdAddAcc                0      0.00%     64.89% # Type of FU issued
system.cpu1.iq.FU_type_0::SimdAlu                   0      0.00%     64.89% # Type of FU issued
system.cpu1.iq.FU_type_0::SimdCmp                   0      0.00%     64.89% # Type of FU issued
system.cpu1.iq.FU_type_0::SimdCvt                   0      0.00%     64.89% # Type of FU issued
system.cpu1.iq.FU_type_0::SimdMisc                  0      0.00%     64.89% # Type of FU issued
system.cpu1.iq.FU_type_0::SimdMult                  0      0.00%     64.89% # Type of FU issued
system.cpu1.iq.FU_type_0::SimdMultAcc               0      0.00%     64.89% # Type of FU issued
system.cpu1.iq.FU_type_0::SimdShift                 0      0.00%     64.89% # Type of FU issued
system.cpu1.iq.FU_type_0::SimdShiftAcc              0      0.00%     64.89% # Type of FU issued
system.cpu1.iq.FU_type_0::SimdDiv                   0      0.00%     64.89% # Type of FU issued
system.cpu1.iq.FU_type_0::SimdSqrt                  0      0.00%     64.89% # Type of FU issued
system.cpu1.iq.FU_type_0::SimdFloatAdd              0      0.00%     64.89% # Type of FU issued
system.cpu1.iq.FU_type_0::SimdFloatAlu              0      0.00%     64.89% # Type of FU issued
system.cpu1.iq.FU_type_0::SimdFloatCmp              0      0.00%     64.89% # Type of FU issued
system.cpu1.iq.FU_type_0::SimdFloatCvt              0      0.00%     64.89% # Type of FU issued
system.cpu1.iq.FU_type_0::SimdFloatDiv              0      0.00%     64.89% # Type of FU issued
system.cpu1.iq.FU_type_0::SimdFloatMisc             0      0.00%     64.89% # Type of FU issued
system.cpu1.iq.FU_type_0::SimdFloatMult             0      0.00%     64.89% # Type of FU issued
system.cpu1.iq.FU_type_0::SimdFloatMultAcc            0      0.00%     64.89% # Type of FU issued
system.cpu1.iq.FU_type_0::SimdFloatSqrt             0      0.00%     64.89% # Type of FU issued
system.cpu1.iq.FU_type_0::SimdReduceAdd             0      0.00%     64.89% # Type of FU issued
system.cpu1.iq.FU_type_0::SimdReduceAlu             0      0.00%     64.89% # Type of FU issued
system.cpu1.iq.FU_type_0::SimdReduceCmp             0      0.00%     64.89% # Type of FU issued
system.cpu1.iq.FU_type_0::SimdFloatReduceAdd            0      0.00%     64.89% # Type of FU issued
system.cpu1.iq.FU_type_0::SimdFloatReduceCmp            0      0.00%     64.89% # Type of FU issued
system.cpu1.iq.FU_type_0::SimdAes                   0      0.00%     64.89% # Type of FU issued
system.cpu1.iq.FU_type_0::SimdAesMix                0      0.00%     64.89% # Type of FU issued
system.cpu1.iq.FU_type_0::SimdSha1Hash              0      0.00%     64.89% # Type of FU issued
system.cpu1.iq.FU_type_0::SimdSha1Hash2             0      0.00%     64.89% # Type of FU issued
system.cpu1.iq.FU_type_0::SimdSha256Hash            0      0.00%     64.89% # Type of FU issued
system.cpu1.iq.FU_type_0::SimdSha256Hash2            0      0.00%     64.89% # Type of FU issued
system.cpu1.iq.FU_type_0::SimdShaSigma2             0      0.00%     64.89% # Type of FU issued
system.cpu1.iq.FU_type_0::SimdShaSigma3             0      0.00%     64.89% # Type of FU issued
system.cpu1.iq.FU_type_0::SimdPredAlu               0      0.00%     64.89% # Type of FU issued
system.cpu1.iq.FU_type_0::MemRead             1294797     25.56%     90.46% # Type of FU issued
system.cpu1.iq.FU_type_0::MemWrite             483388      9.54%    100.00% # Type of FU issued
system.cpu1.iq.FU_type_0::FloatMemRead             16      0.00%    100.00% # Type of FU issued
system.cpu1.iq.FU_type_0::FloatMemWrite            18      0.00%    100.00% # Type of FU issued
system.cpu1.iq.FU_type_0::IprAccess                 0      0.00%    100.00% # Type of FU issued
system.cpu1.iq.FU_type_0::InstPrefetch              0      0.00%    100.00% # Type of FU issued
system.cpu1.iq.FU_type_0::total               5064837                       # Type of FU issued
system.cpu1.iq.fp_alu_accesses                     40                       # Number of floating point alu accesses
system.cpu1.iq.fp_inst_queue_reads                 74                       # Number of floating instruction queue reads
system.cpu1.iq.fp_inst_queue_wakeup_accesses           29                       # Number of floating instruction queue wakeup accesses
system.cpu1.iq.fp_inst_queue_writes                34                       # Number of floating instruction queue writes
system.cpu1.iq.fu_busy_cnt                      34520                       # FU busy when requested
system.cpu1.iq.fu_busy_rate                  0.006816                       # FU busy rate (busy events/executed inst)
system.cpu1.iq.fu_full::No_OpClass                  0      0.00%      0.00% # attempts to use FU when none available
system.cpu1.iq.fu_full::IntAlu                  11864     34.37%     34.37% # attempts to use FU when none available
system.cpu1.iq.fu_full::IntMult                     0      0.00%     34.37% # attempts to use FU when none available
system.cpu1.iq.fu_full::IntDiv                      0      0.00%     34.37% # attempts to use FU when none available
system.cpu1.iq.fu_full::FloatAdd                    0      0.00%     34.37% # attempts to use FU when none available
system.cpu1.iq.fu_full::FloatCmp                    0      0.00%     34.37% # attempts to use FU when none available
system.cpu1.iq.fu_full::FloatCvt                    0      0.00%     34.37% # attempts to use FU when none available
system.cpu1.iq.fu_full::FloatMult                   0      0.00%     34.37% # attempts to use FU when none available
system.cpu1.iq.fu_full::FloatMultAcc                0      0.00%     34.37% # attempts to use FU when none available
system.cpu1.iq.fu_full::FloatDiv                    0      0.00%     34.37% # attempts to use FU when none available
system.cpu1.iq.fu_full::FloatMisc                   0      0.00%     34.37% # attempts to use FU when none available
system.cpu1.iq.fu_full::FloatSqrt                   0      0.00%     34.37% # attempts to use FU when none available
system.cpu1.iq.fu_full::SimdAdd                     0      0.00%     34.37% # attempts to use FU when none available
system.cpu1.iq.fu_full::SimdAddAcc                  0      0.00%     34.37% # attempts to use FU when none available
system.cpu1.iq.fu_full::SimdAlu                     0      0.00%     34.37% # attempts to use FU when none available
system.cpu1.iq.fu_full::SimdCmp                     0      0.00%     34.37% # attempts to use FU when none available
system.cpu1.iq.fu_full::SimdCvt                     0      0.00%     34.37% # attempts to use FU when none available
system.cpu1.iq.fu_full::SimdMisc                    0      0.00%     34.37% # attempts to use FU when none available
system.cpu1.iq.fu_full::SimdMult                    0      0.00%     34.37% # attempts to use FU when none available
system.cpu1.iq.fu_full::SimdMultAcc                 0      0.00%     34.37% # attempts to use FU when none available
system.cpu1.iq.fu_full::SimdShift                   0      0.00%     34.37% # attempts to use FU when none available
system.cpu1.iq.fu_full::SimdShiftAcc                0      0.00%     34.37% # attempts to use FU when none available
system.cpu1.iq.fu_full::SimdDiv                     0      0.00%     34.37% # attempts to use FU when none available
system.cpu1.iq.fu_full::SimdSqrt                    0      0.00%     34.37% # attempts to use FU when none available
system.cpu1.iq.fu_full::SimdFloatAdd                0      0.00%     34.37% # attempts to use FU when none available
system.cpu1.iq.fu_full::SimdFloatAlu                0      0.00%     34.37% # attempts to use FU when none available
system.cpu1.iq.fu_full::SimdFloatCmp                0      0.00%     34.37% # attempts to use FU when none available
system.cpu1.iq.fu_full::SimdFloatCvt                0      0.00%     34.37% # attempts to use FU when none available
system.cpu1.iq.fu_full::SimdFloatDiv                0      0.00%     34.37% # attempts to use FU when none available
system.cpu1.iq.fu_full::SimdFloatMisc               0      0.00%     34.37% # attempts to use FU when none available
system.cpu1.iq.fu_full::SimdFloatMult               0      0.00%     34.37% # attempts to use FU when none available
system.cpu1.iq.fu_full::SimdFloatMultAcc            0      0.00%     34.37% # attempts to use FU when none available
system.cpu1.iq.fu_full::SimdFloatSqrt               0      0.00%     34.37% # attempts to use FU when none available
system.cpu1.iq.fu_full::SimdReduceAdd               0      0.00%     34.37% # attempts to use FU when none available
system.cpu1.iq.fu_full::SimdReduceAlu               0      0.00%     34.37% # attempts to use FU when none available
system.cpu1.iq.fu_full::SimdReduceCmp               0      0.00%     34.37% # attempts to use FU when none available
system.cpu1.iq.fu_full::SimdFloatReduceAdd            0      0.00%     34.37% # attempts to use FU when none available
system.cpu1.iq.fu_full::SimdFloatReduceCmp            0      0.00%     34.37% # attempts to use FU when none available
system.cpu1.iq.fu_full::SimdAes                     0      0.00%     34.37% # attempts to use FU when none available
system.cpu1.iq.fu_full::SimdAesMix                  0      0.00%     34.37% # attempts to use FU when none available
system.cpu1.iq.fu_full::SimdSha1Hash                0      0.00%     34.37% # attempts to use FU when none available
system.cpu1.iq.fu_full::SimdSha1Hash2               0      0.00%     34.37% # attempts to use FU when none available
system.cpu1.iq.fu_full::SimdSha256Hash              0      0.00%     34.37% # attempts to use FU when none available
system.cpu1.iq.fu_full::SimdSha256Hash2             0      0.00%     34.37% # attempts to use FU when none available
system.cpu1.iq.fu_full::SimdShaSigma2               0      0.00%     34.37% # attempts to use FU when none available
system.cpu1.iq.fu_full::SimdShaSigma3               0      0.00%     34.37% # attempts to use FU when none available
system.cpu1.iq.fu_full::SimdPredAlu                 0      0.00%     34.37% # attempts to use FU when none available
[...]
system.cpu1.dcache.WriteReq_mshr_misses::total        22428                       # number of WriteReq MSHR misses
system.cpu1.dcache.WriteReq_mshr_miss_latency::.cpu1.data   1615823372                       # number of WriteReq MSHR miss cycles
system.cpu1.dcache.WriteReq_mshr_miss_latency::total   1615823372                       # number of WriteReq MSHR miss cycles
system.cpu1.dcache.WriteReq_mshr_miss_rate::.cpu1.data     0.065352                       # mshr miss rate for WriteReq accesses
system.cpu1.dcache.WriteReq_mshr_miss_rate::total     0.065352                       # mshr miss rate for WriteReq accesses
system.cpu1.dcache.WriteReq_avg_mshr_miss_latency::.cpu1.data 72044.915820                       # average WriteReq mshr miss latency
system.cpu1.dcache.WriteReq_avg_mshr_miss_latency::total 72044.915820                       # average WriteReq mshr miss latency
system.cpu1.dcache.LoadLockedReq_hits::.cpu1.data         3015                       # number of LoadLockedReq hits
system.cpu1.dcache.LoadLockedReq_hits::total         3015                       # number of LoadLockedReq hits
system.cpu1.dcache.LoadLockedReq_misses::.cpu1.data          806                       # number of LoadLockedReq misses
system.cpu1.dcache.LoadLockedReq_misses::total          806                       # number of LoadLockedReq misses
system.cpu1.dcache.LoadLockedReq_miss_latency::.cpu1.data     26509500                       # number of LoadLockedReq miss cycles
system.cpu1.dcache.LoadLockedReq_miss_latency::total     26509500                       # number of LoadLockedReq miss cycles
system.cpu1.dcache.LoadLockedReq_accesses::.cpu1.data         3821                       # number of LoadLockedReq accesses(hits+misses)
system.cpu1.dcache.LoadLockedReq_accesses::total         3821                       # number of LoadLockedReq accesses(hits+misses)
system.cpu1.dcache.LoadLockedReq_miss_rate::.cpu1.data     0.210940                       # miss rate for LoadLockedReq accesses
system.cpu1.dcache.LoadLockedReq_miss_rate::total     0.210940                       # miss rate for LoadLockedReq accesses
system.cpu1.dcache.LoadLockedReq_avg_miss_latency::.cpu1.data 32890.198511                       # average LoadLockedReq miss latency
system.cpu1.dcache.LoadLockedReq_avg_miss_latency::total 32890.198511                       # average LoadLockedReq miss latency
system.cpu1.dcache.LoadLockedReq_mshr_hits::.cpu1.data          380                       # number of LoadLockedReq MSHR hits
system.cpu1.dcache.LoadLockedReq_mshr_hits::total          380                       # number of LoadLockedReq MSHR hits
system.cpu1.dcache.LoadLockedReq_mshr_misses::.cpu1.data          426                       # number of LoadLockedReq MSHR misses
system.cpu1.dcache.LoadLockedReq_mshr_misses::total          426                       # number of LoadLockedReq MSHR misses
system.cpu1.dcache.LoadLockedReq_mshr_miss_latency::.cpu1.data      3976000                       # number of LoadLockedReq MSHR miss cycles
system.cpu1.dcache.LoadLockedReq_mshr_miss_latency::total      3976000                       # number of LoadLockedReq MSHR miss cycles
system.cpu1.dcache.LoadLockedReq_mshr_miss_rate::.cpu1.data     0.111489                       # mshr miss rate for LoadLockedReq accesses
system.cpu1.dcache.LoadLockedReq_mshr_miss_rate::total     0.111489                       # mshr miss rate for LoadLockedReq accesses
system.cpu1.dcache.LoadLockedReq_avg_mshr_miss_latency::.cpu1.data  9333.333333                       # average LoadLockedReq mshr miss latency
system.cpu1.dcache.LoadLockedReq_avg_mshr_miss_latency::total  9333.333333                       # average LoadLockedReq mshr miss latency
system.cpu1.dcache.StoreCondReq_hits::.cpu1.data         1415                       # number of StoreCondReq hits
system.cpu1.dcache.StoreCondReq_hits::total         1415                       # number of StoreCondReq hits
system.cpu1.dcache.StoreCondReq_misses::.cpu1.data         1420                       # number of StoreCondReq misses
system.cpu1.dcache.StoreCondReq_misses::total         1420                       # number of StoreCondReq misses
system.cpu1.dcache.StoreCondReq_miss_latency::.cpu1.data     12007000                       # number of StoreCondReq miss cycles
system.cpu1.dcache.StoreCondReq_miss_latency::total     12007000                       # number of StoreCondReq miss cycles
system.cpu1.dcache.StoreCondReq_accesses::.cpu1.data         2835                       # number of StoreCondReq accesses(hits+misses)
system.cpu1.dcache.StoreCondReq_accesses::total         2835                       # number of StoreCondReq accesses(hits+misses)
system.cpu1.dcache.StoreCondReq_miss_rate::.cpu1.data     0.500882                       # miss rate for StoreCondReq accesses
system.cpu1.dcache.StoreCondReq_miss_rate::total     0.500882                       # miss rate for StoreCondReq accesses
system.cpu1.dcache.StoreCondReq_avg_miss_latency::.cpu1.data  8455.633803                       # average StoreCondReq miss latency
system.cpu1.dcache.StoreCondReq_avg_miss_latency::total  8455.633803                       # average StoreCondReq miss latency
system.cpu1.dcache.StoreCondReq_mshr_misses::.cpu1.data         1378                       # number of StoreCondReq MSHR misses
system.cpu1.dcache.StoreCondReq_mshr_misses::total         1378                       # number of StoreCondReq MSHR misses
system.cpu1.dcache.StoreCondReq_mshr_miss_latency::.cpu1.data     10803000                       # number of StoreCondReq MSHR miss cycles
system.cpu1.dcache.StoreCondReq_mshr_miss_latency::total     10803000                       # number of StoreCondReq MSHR miss cycles
system.cpu1.dcache.StoreCondReq_mshr_miss_rate::.cpu1.data     0.486067                       # mshr miss rate for StoreCondReq accesses
system.cpu1.dcache.StoreCondReq_mshr_miss_rate::total     0.486067                       # mshr miss rate for StoreCondReq accesses
system.cpu1.dcache.StoreCondReq_avg_mshr_miss_latency::.cpu1.data  7839.622642                       # average StoreCondReq mshr miss latency
system.cpu1.dcache.StoreCondReq_avg_mshr_miss_latency::total  7839.622642                       # average StoreCondReq mshr miss latency
system.cpu1.dcache.StoreCondFailReq_miss_latency::.cpu1.data      3439000                       # number of StoreCondFailReq miss cycles
system.cpu1.dcache.StoreCondFailReq_miss_latency::total      3439000                       # number of StoreCondFailReq miss cycles
system.cpu1.dcache.StoreCondFailReq_avg_miss_latency::.cpu1.data          inf                       # average StoreCondFailReq miss latency
system.cpu1.dcache.StoreCondFailReq_avg_miss_latency::total          inf                       # average StoreCondFailReq miss latency
system.cpu1.dcache.StoreCondFailReq_mshr_miss_latency::.cpu1.data      3265000                       # number of StoreCondFailReq MSHR miss cycles
system.cpu1.dcache.StoreCondFailReq_mshr_miss_latency::total      3265000                       # number of StoreCondFailReq MSHR miss cycles
system.cpu1.dcache.StoreCondFailReq_avg_mshr_miss_latency::.cpu1.data          inf                       # average StoreCondFailReq mshr miss latency
system.cpu1.dcache.StoreCondFailReq_avg_mshr_miss_latency::total          inf                       # average StoreCondFailReq mshr miss latency
system.cpu1.dcache.SwapReq_hits::.cpu1.data         1032                       # number of SwapReq hits
system.cpu1.dcache.SwapReq_hits::total           1032                       # number of SwapReq hits
system.cpu1.dcache.SwapReq_misses::.cpu1.data         4250                       # number of SwapReq misses
system.cpu1.dcache.SwapReq_misses::total         4250                       # number of SwapReq misses
system.cpu1.dcache.SwapReq_miss_latency::.cpu1.data    132037000                       # number of SwapReq miss cycles
system.cpu1.dcache.SwapReq_miss_latency::total    132037000                       # number of SwapReq miss cycles
system.cpu1.dcache.SwapReq_accesses::.cpu1.data         5282                       # number of SwapReq accesses(hits+misses)
system.cpu1.dcache.SwapReq_accesses::total         5282                       # number of SwapReq accesses(hits+misses)
system.cpu1.dcache.SwapReq_miss_rate::.cpu1.data     0.804619                       # miss rate for SwapReq accesses
system.cpu1.dcache.SwapReq_miss_rate::total     0.804619                       # miss rate for SwapReq accesses
system.cpu1.dcache.SwapReq_avg_miss_latency::.cpu1.data 31067.529412                       # average SwapReq miss latency
system.cpu1.dcache.SwapReq_avg_miss_latency::total 31067.529412                       # average SwapReq miss latency
system.cpu1.dcache.SwapReq_mshr_misses::.cpu1.data         4250                       # number of SwapReq MSHR misses
system.cpu1.dcache.SwapReq_mshr_misses::total         4250                       # number of SwapReq MSHR misses
system.cpu1.dcache.SwapReq_mshr_miss_latency::.cpu1.data    127787000                       # number of SwapReq MSHR miss cycles
system.cpu1.dcache.SwapReq_mshr_miss_latency::total    127787000                       # number of SwapReq MSHR miss cycles
system.cpu1.dcache.SwapReq_mshr_miss_rate::.cpu1.data     0.804619                       # mshr miss rate for SwapReq accesses
system.cpu1.dcache.SwapReq_mshr_miss_rate::total     0.804619                       # mshr miss rate for SwapReq accesses
system.cpu1.dcache.SwapReq_avg_mshr_miss_latency::.cpu1.data 30067.529412                       # average SwapReq mshr miss latency
system.cpu1.dcache.SwapReq_avg_mshr_miss_latency::total 30067.529412                       # average SwapReq mshr miss latency
system.cpu1.dcache.tags.pwrStateResidencyTicks::UNDEFINED  69112133500                       # Cumulative time (in ticks) in various power states
system.cpu1.dcache.tags.tagsinuse           31.532450                       # Cycle average of tags in use
system.cpu1.dcache.tags.total_refs            5739163                       # Total number of references to valid blocks.
system.cpu1.dcache.tags.sampled_refs          2958232                       # Sample count of references to valid blocks.
system.cpu1.dcache.tags.avg_refs             1.940065                       # Average number of references to valid blocks.
system.cpu1.dcache.tags.warmup_cycle                0                       # Cycle when the warmup percentage was hit.
system.cpu1.dcache.tags.occ_blocks::.cpu1.data    31.532450                       # Average occupied blocks per requestor
system.cpu1.dcache.tags.occ_percent::.cpu1.data     0.985389                       # Average percentage of cache occupancy
system.cpu1.dcache.tags.occ_percent::total     0.985389                       # Average percentage of cache occupancy
system.cpu1.dcache.tags.occ_task_id_blocks::1024           25                       # Occupied blocks per task id
system.cpu1.dcache.tags.age_task_id_blocks_1024::1           25                       # Occupied blocks per task id
system.cpu1.dcache.tags.occ_task_id_percent::1024     0.781250                       # Percentage of cache occupancy per task id
system.cpu1.dcache.tags.tag_accesses         20159735                       # Number of tag accesses
system.cpu1.dcache.tags.data_accesses        20159735                       # Number of data accesses
system.cpu_clk_domain.clock                       500                       # Clock period in ticks
system.tol2bus.pwrStateResidencyTicks::UNDEFINED  69112133500                       # Cumulative time (in ticks) in various power states
system.tol2bus.trans_dist::ReadResp          11844823                       # Transaction distribution
system.tol2bus.trans_dist::ReadRespWithInvalidate            2                       # Transaction distribution
system.tol2bus.trans_dist::WritebackDirty       499229                       # Transaction distribution
system.tol2bus.trans_dist::WritebackClean     11649209                       # Transaction distribution
system.tol2bus.trans_dist::CleanEvict        13972292                       # Transaction distribution
system.tol2bus.trans_dist::UpgradeReq            8705                       # Transaction distribution
system.tol2bus.trans_dist::SCUpgradeReq          5163                       # Transaction distribution
system.tol2bus.trans_dist::UpgradeResp          13868                       # Transaction distribution
system.tol2bus.trans_dist::SCUpgradeFailReq          489                       # Transaction distribution
system.tol2bus.trans_dist::UpgradeFailResp          489                       # Transaction distribution
system.tol2bus.trans_dist::ReadExReq           115271                       # Transaction distribution
system.tol2bus.trans_dist::ReadExResp          115271                       # Transaction distribution
system.tol2bus.trans_dist::ReadCleanReq        121543                       # Transaction distribution
system.tol2bus.trans_dist::ReadSharedReq     11723283                       # Transaction distribution
system.tol2bus.pkt_count_system.cpu0.icache.mem_side::system.l2.cpu_side       218674                       # Packet count per connected master and slave (bytes)
system.tol2bus.pkt_count_system.cpu0.dcache.mem_side::system.l2.cpu_side      8893238                       # Packet count per connected master and slave (bytes)
system.tol2bus.pkt_count_system.cpu1.icache.mem_side::system.l2.cpu_side        47877                       # Packet count per connected master and slave (bytes)
system.tol2bus.pkt_count_system.cpu1.dcache.mem_side::system.l2.cpu_side      8858617                       # Packet count per connected master and slave (bytes)
system.tol2bus.pkt_count_system.cpu2.icache.mem_side::system.l2.cpu_side        47964                       # Packet count per connected master and slave (bytes)
system.tol2bus.pkt_count_system.cpu2.dcache.mem_side::system.l2.cpu_side      8859213                       # Packet count per connected master and slave (bytes)
system.tol2bus.pkt_count_system.cpu3.icache.mem_side::system.l2.cpu_side        50112                       # Packet count per connected master and slave (bytes)
system.tol2bus.pkt_count_system.cpu3.dcache.mem_side::system.l2.cpu_side      8845992                       # Packet count per connected master and slave (bytes)
system.tol2bus.pkt_count::total              35821687                       # Packet count per connected master and slave (bytes)
system.tol2bus.pkt_size_system.cpu0.icache.mem_side::system.l2.cpu_side      9330048                       # Cumulative packet size per connected master and slave (bytes)
system.tol2bus.pkt_size_system.cpu0.dcache.mem_side::system.l2.cpu_side    378911296                       # Cumulative packet size per connected master and slave (bytes)
system.tol2bus.pkt_size_system.cpu1.icache.mem_side::system.l2.cpu_side      2042752                       # Cumulative packet size per connected master and slave (bytes)
system.tol2bus.pkt_size_system.cpu1.dcache.mem_side::system.l2.cpu_side    377374272                       # Cumulative packet size per connected master and slave (bytes)
system.tol2bus.pkt_size_system.cpu2.icache.mem_side::system.l2.cpu_side      2046464                       # Cumulative packet size per connected master and slave (bytes)
system.tol2bus.pkt_size_system.cpu2.dcache.mem_side::system.l2.cpu_side    377400576                       # Cumulative packet size per connected master and slave (bytes)
system.tol2bus.pkt_size_system.cpu3.icache.mem_side::system.l2.cpu_side      2138112                       # Cumulative packet size per connected master and slave (bytes)
system.tol2bus.pkt_size_system.cpu3.dcache.mem_side::system.l2.cpu_side    376800832                       # Cumulative packet size per connected master and slave (bytes)
system.tol2bus.pkt_size::total             1526044352                       # Cumulative packet size per connected master and slave (bytes)
system.tol2bus.snoops                        14247950                       # Total snoops (count)
system.tol2bus.snoopTraffic                  16933120                       # Total snoop traffic (bytes)
system.tol2bus.snoop_fanout::samples         26161501                       # Request fanout histogram
system.tol2bus.snoop_fanout::mean            0.585409                       # Request fanout histogram
system.tol2bus.snoop_fanout::stdev           0.725098                       # Request fanout histogram
system.tol2bus.snoop_fanout::underflows             0      0.00%      0.00% # Request fanout histogram
system.tol2bus.snoop_fanout::0               14071915     53.79%     53.79% # Request fanout histogram
system.tol2bus.snoop_fanout::1                9308116     35.58%     89.37% # Request fanout histogram
system.tol2bus.snoop_fanout::2                2370322      9.06%     98.43% # Request fanout histogram
system.tol2bus.snoop_fanout::3                 378183      1.45%     99.87% # Request fanout histogram
system.tol2bus.snoop_fanout::4                  32965      0.13%    100.00% # Request fanout histogram
system.tol2bus.snoop_fanout::5                      0      0.00%    100.00% # Request fanout histogram
system.tol2bus.snoop_fanout::6                      0      0.00%    100.00% # Request fanout histogram
system.tol2bus.snoop_fanout::7                      0      0.00%    100.00% # Request fanout histogram
system.tol2bus.snoop_fanout::8                      0      0.00%    100.00% # Request fanout histogram
system.tol2bus.snoop_fanout::overflows              0      0.00%    100.00% # Request fanout histogram
system.tol2bus.snoop_fanout::min_value              0                       # Request fanout histogram
system.tol2bus.snoop_fanout::max_value              4                       # Request fanout histogram
system.tol2bus.snoop_fanout::total           26161501                       # Request fanout histogram
system.tol2bus.reqLayer0.occupancy        23888378550                       # Layer occupancy (ticks)
system.tol2bus.reqLayer0.utilization             34.6                       # Layer utilization (%)
system.tol2bus.respLayer5.occupancy        4501182413                       # Layer occupancy (ticks)
system.tol2bus.respLayer5.utilization             6.5                       # Layer utilization (%)
system.tol2bus.respLayer4.occupancy          24850850                       # Layer occupancy (ticks)
system.tol2bus.respLayer4.utilization             0.0                       # Layer utilization (%)
system.tol2bus.respLayer7.occupancy        4495526982                       # Layer occupancy (ticks)
system.tol2bus.respLayer7.utilization             6.5                       # Layer utilization (%)
system.tol2bus.respLayer6.occupancy          26013161                       # Layer occupancy (ticks)
system.tol2bus.respLayer6.utilization             0.0                       # Layer utilization (%)
system.tol2bus.respLayer1.occupancy        4514963191                       # Layer occupancy (ticks)
system.tol2bus.respLayer1.utilization             6.5                       # Layer utilization (%)
system.tol2bus.respLayer0.occupancy         109575417                       # Layer occupancy (ticks)
system.tol2bus.respLayer0.utilization             0.2                       # Layer utilization (%)
system.tol2bus.respLayer3.occupancy        4500963591                       # Layer occupancy (ticks)
system.tol2bus.respLayer3.utilization             6.5                       # Layer utilization (%)
system.tol2bus.respLayer2.occupancy          24856209                       # Layer occupancy (ticks)
system.tol2bus.respLayer2.utilization             0.0                       # Layer utilization (%)

---------- End Simulation Statistics   ----------
