
---------- Begin Simulation Statistics ----------
final_tick                               8662249725966250                       # Number of ticks from beginning of simulation (restored from checkpoints and never reset)
host_inst_rate                                  16618                       # Simulator instruction rate (inst/s)
host_mem_usage                                 738484                       # Number of bytes of host memory used
host_op_rate                                    16666                       # Simulator op (including micro ops) rate (op/s)
host_seconds                                 32346.82                       # Real time elapsed on the host
host_tick_rate                           267792946364                       # Simulator tick rate (ticks/s)
sim_freq                                 1000000000000                       # Frequency of simulated ticks
sim_insts                                   537555489                       # Number of instructions simulated
sim_ops                                     539084849                       # Number of ops (including micro ops) simulated
sim_seconds                               8662.249726                       # Number of seconds simulated
sim_ticks                                8662249725966250                       # Number of ticks simulated
system.cpu0.branchPred.BTBCorrect                   0                       # Number of correct BTB predictions (this stat may not work properly.
system.cpu0.branchPred.BTBHitPct            85.699254                       # BTB Hit Percentage
system.cpu0.branchPred.BTBHits               62933542                       # Number of BTB hits
system.cpu0.branchPred.BTBLookups            73435344                       # Number of BTB lookups
system.cpu0.branchPred.RASInCorrect                 0                       # Number of incorrect RAS predictions.
system.cpu0.branchPred.condIncorrect          4359226                       # Number of conditional branches incorrect
system.cpu0.branchPred.condPredicted        100827906                       # Number of conditional branches predicted
system.cpu0.branchPred.indirectHits           9869579                       # Number of indirect target hits.
system.cpu0.branchPred.indirectLookups        9913628                       # Number of indirect predictor lookups.
system.cpu0.branchPred.indirectMisses           44049                       # Number of indirect misses.
system.cpu0.branchPred.lookups              130374877                       # Number of BP lookups
system.cpu0.branchPred.usedRAS                      0                       # Number of times the RAS was used to get a target.
system.cpu0.branchPredindirectMispredicted      1020040                       # Number of mispredicted indirect branches.
system.cpu0.commit.amos                        382054                       # Number of atomic instructions committed
system.cpu0.commit.branchMispredicts          2771999                       # The number of times a branch was mispredicted
system.cpu0.commit.branches                 124893662                       # Number of branches committed
system.cpu0.commit.bw_lim_events             18412059                       # number cycles where commit BW limit reached
system.cpu0.commit.commitNonSpecStalls        1150220                       # The number of times commit has been forced to stall to communicate backwards
system.cpu0.commit.commitSquashedInsts       24869462                       # The number of squashed insts skipped by commit
system.cpu0.commit.committedInsts           512710464                       # Number of instructions committed
system.cpu0.commit.committedOps             513093839                       # Number of ops (including micro ops) committed
system.cpu0.commit.committed_per_cycle::samples    854657391                       # Number of insts commited each cycle
system.cpu0.commit.committed_per_cycle::mean     0.600350                       # Number of insts commited each cycle
system.cpu0.commit.committed_per_cycle::stdev     1.414650                       # Number of insts commited each cycle
system.cpu0.commit.committed_per_cycle::underflows            0      0.00%      0.00% # Number of insts commited each cycle
system.cpu0.commit.committed_per_cycle::0    609839519     71.35%     71.35% # Number of insts commited each cycle
system.cpu0.commit.committed_per_cycle::1    151947336     17.78%     89.13% # Number of insts commited each cycle
system.cpu0.commit.committed_per_cycle::2     30305958      3.55%     92.68% # Number of insts commited each cycle
system.cpu0.commit.committed_per_cycle::3     31284000      3.66%     96.34% # Number of insts commited each cycle
system.cpu0.commit.committed_per_cycle::4      7900114      0.92%     97.26% # Number of insts commited each cycle
system.cpu0.commit.committed_per_cycle::5      3182393      0.37%     97.64% # Number of insts commited each cycle
system.cpu0.commit.committed_per_cycle::6       628390      0.07%     97.71% # Number of insts commited each cycle
system.cpu0.commit.committed_per_cycle::7      1157622      0.14%     97.85% # Number of insts commited each cycle
system.cpu0.commit.committed_per_cycle::8     18412059      2.15%    100.00% # Number of insts commited each cycle
system.cpu0.commit.committed_per_cycle::overflows            0      0.00%    100.00% # Number of insts commited each cycle
system.cpu0.commit.committed_per_cycle::min_value            0                       # Number of insts commited each cycle
system.cpu0.commit.committed_per_cycle::max_value            8                       # Number of insts commited each cycle
system.cpu0.commit.committed_per_cycle::total    854657391                       # Number of insts commited each cycle
system.cpu0.commit.fp_insts                        29                       # Number of committed floating point instructions.
system.cpu0.commit.function_calls            11213610                       # Number of function calls committed.
system.cpu0.commit.int_insts                496418354                       # Number of committed integer instructions.
system.cpu0.commit.loads                    162656143                       # Number of loads committed
system.cpu0.commit.membars                     765396                       # Number of memory barriers committed
system.cpu0.commit.op_class_0::No_OpClass       765399      0.15%      0.15% # Class of committed instruction
system.cpu0.commit.op_class_0::IntAlu       278830151     54.34%     54.49% # Class of committed instruction
system.cpu0.commit.op_class_0::IntMult        4135815      0.81%     55.30% # Class of committed instruction
system.cpu0.commit.op_class_0::IntDiv         1017744      0.20%     55.50% # Class of committed instruction
system.cpu0.commit.op_class_0::FloatAdd             0      0.00%     55.50% # Class of committed instruction
system.cpu0.commit.op_class_0::FloatCmp             2      0.00%     55.50% # Class of committed instruction
system.cpu0.commit.op_class_0::FloatCvt             6      0.00%     55.50% # Class of committed instruction
system.cpu0.commit.op_class_0::FloatMult            0      0.00%     55.50% # Class of committed instruction
system.cpu0.commit.op_class_0::FloatMultAcc            0      0.00%     55.50% # Class of committed instruction
system.cpu0.commit.op_class_0::FloatDiv             1      0.00%     55.50% # Class of committed instruction
system.cpu0.commit.op_class_0::FloatMisc            2      0.00%     55.50% # Class of committed instruction
system.cpu0.commit.op_class_0::FloatSqrt            0      0.00%     55.50% # Class of committed instruction
system.cpu0.commit.op_class_0::SimdAdd              0      0.00%     55.50% # Class of committed instruction
system.cpu0.commit.op_class_0::SimdAddAcc            0      0.00%     55.50% # Class of committed instruction
system.cpu0.commit.op_class_0::SimdAlu              0      0.00%     55.50% # Class of committed instruction
system.cpu0.commit.op_class_0::SimdCmp              0      0.00%     55.50% # Class of committed instruction
system.cpu0.commit.op_class_0::SimdCvt              0      0.00%     55.50% # Class of committed instruction
system.cpu0.commit.op_class_0::SimdMisc             0      0.00%     55.50% # Class of committed instruction
system.cpu0.commit.op_class_0::SimdMult             0      0.00%     55.50% # Class of committed instruction
system.cpu0.commit.op_class_0::SimdMultAcc            0      0.00%     55.50% # Class of committed instruction
system.cpu0.commit.op_class_0::SimdShift            0      0.00%     55.50% # Class of committed instruction
system.cpu0.commit.op_class_0::SimdShiftAcc            0      0.00%     55.50% # Class of committed instruction
system.cpu0.commit.op_class_0::SimdDiv              0      0.00%     55.50% # Class of committed instruction
system.cpu0.commit.op_class_0::SimdSqrt             0      0.00%     55.50% # Class of committed instruction
system.cpu0.commit.op_class_0::SimdFloatAdd            0      0.00%     55.50% # Class of committed instruction
system.cpu0.commit.op_class_0::SimdFloatAlu            0      0.00%     55.50% # Class of committed instruction
system.cpu0.commit.op_class_0::SimdFloatCmp            0      0.00%     55.50% # Class of committed instruction
system.cpu0.commit.op_class_0::SimdFloatCvt            0      0.00%     55.50% # Class of committed instruction
system.cpu0.commit.op_class_0::SimdFloatDiv            0      0.00%     55.50% # Class of committed instruction
system.cpu0.commit.op_class_0::SimdFloatMisc            0      0.00%     55.50% # Class of committed instruction
system.cpu0.commit.op_class_0::SimdFloatMult            0      0.00%     55.50% # Class of committed instruction
system.cpu0.commit.op_class_0::SimdFloatMultAcc            0      0.00%     55.50% # Class of committed instruction
system.cpu0.commit.op_class_0::SimdFloatSqrt            0      0.00%     55.50% # Class of committed instruction
system.cpu0.commit.op_class_0::SimdReduceAdd            0      0.00%     55.50% # Class of committed instruction
system.cpu0.commit.op_class_0::SimdReduceAlu            0      0.00%     55.50% # Class of committed instruction
system.cpu0.commit.op_class_0::SimdReduceCmp            0      0.00%     55.50% # Class of committed instruction
system.cpu0.commit.op_class_0::SimdFloatReduceAdd            0      0.00%     55.50% # Class of committed instruction
system.cpu0.commit.op_class_0::SimdFloatReduceCmp            0      0.00%     55.50% # Class of committed instruction
system.cpu0.commit.op_class_0::SimdAes              0      0.00%     55.50% # Class of committed instruction
system.cpu0.commit.op_class_0::SimdAesMix            0      0.00%     55.50% # Class of committed instruction
system.cpu0.commit.op_class_0::SimdSha1Hash            0      0.00%     55.50% # Class of committed instruction
system.cpu0.commit.op_class_0::SimdSha1Hash2            0      0.00%     55.50% # Class of committed instruction
system.cpu0.commit.op_class_0::SimdSha256Hash            0      0.00%     55.50% # Class of committed instruction
system.cpu0.commit.op_class_0::SimdSha256Hash2            0      0.00%     55.50% # Class of committed instruction
system.cpu0.commit.op_class_0::SimdShaSigma2            0      0.00%     55.50% # Class of committed instruction
system.cpu0.commit.op_class_0::SimdShaSigma3            0      0.00%     55.50% # Class of committed instruction
system.cpu0.commit.op_class_0::SimdPredAlu            0      0.00%     55.50% # Class of committed instruction
system.cpu0.commit.op_class_0::MemRead      163038193     31.78%     87.27% # Class of committed instruction
system.cpu0.commit.op_class_0::MemWrite      65306508     12.73%    100.00% # Class of committed instruction
system.cpu0.commit.op_class_0::FloatMemRead            4      0.00%    100.00% # Class of committed instruction
system.cpu0.commit.op_class_0::FloatMemWrite           14      0.00%    100.00% # Class of committed instruction
system.cpu0.commit.op_class_0::IprAccess            0      0.00%    100.00% # Class of committed instruction
system.cpu0.commit.op_class_0::InstPrefetch            0      0.00%    100.00% # Class of committed instruction
system.cpu0.commit.op_class_0::total        513093839                       # Class of committed instruction
system.cpu0.commit.refs                     228344719                       # Number of memory references committed
system.cpu0.commit.swp_count                        0                       # Number of s/w prefetches committed
system.cpu0.commit.vec_insts                        0                       # Number of committed Vector instructions.
system.cpu0.committedInsts                  512710464                       # Number of Instructions Simulated
system.cpu0.committedOps                    513093839                       # Number of Ops (including micro ops) Simulated
system.cpu0.cpi                              1.842942                       # CPI: Cycles Per Instruction
system.cpu0.cpi_total                        1.842942                       # CPI: Total CPI of All Threads
system.cpu0.decode.BlockedCycles             49641895                       # Number of cycles decode is blocked
system.cpu0.decode.BranchMispred              1587367                       # Number of times decode detected a branch misprediction
system.cpu0.decode.BranchResolved            62797612                       # Number of times decode resolved a branch
system.cpu0.decode.DecodedInsts             543077372                       # Number of instructions handled by decode
system.cpu0.decode.IdleCycles               419111315                       # Number of cycles decode is idle
system.cpu0.decode.RunCycles                386945385                       # Number of cycles decode is running
system.cpu0.decode.SquashCycles               2778316                       # Number of cycles decode is squashing
system.cpu0.decode.SquashedInsts              3370781                       # Number of squashed instructions handled by decode
system.cpu0.decode.UnblockCycles              1101815                       # Number of cycles decode is unblocking
system.cpu0.dtb.accesses                            0                       # DTB accesses
system.cpu0.dtb.hits                                0                       # DTB hits
system.cpu0.dtb.misses                              0                       # DTB misses
system.cpu0.dtb.read_accesses                       0                       # DTB read accesses
system.cpu0.dtb.read_hits                           0                       # DTB read hits
system.cpu0.dtb.read_misses                         0                       # DTB read misses
system.cpu0.dtb.write_accesses                      0                       # DTB write accesses
system.cpu0.dtb.write_hits                          0                       # DTB write hits
system.cpu0.dtb.write_misses                        0                       # DTB write misses
system.cpu0.fetch.Branches                  130374877                       # Number of branches that fetch encountered
system.cpu0.fetch.CacheLines                 95947605                       # Number of cache lines fetched
system.cpu0.fetch.Cycles                    437751370                       # Number of cycles fetch has run and was not squashing or blocked
system.cpu0.fetch.IcacheSquashes              2636272                       # Number of outstanding Icache misses that were squashed
system.cpu0.fetch.IcacheWaitRetryStallCycles          110                       # Number of stall cycles due to full MSHR
system.cpu0.fetch.Insts                     549466631                       # Number of instructions fetch has processed
system.cpu0.fetch.MiscStallCycles                  10                       # Number of cycles fetch has spent waiting on interrupts, or bad addresses, or out of MSHRs
system.cpu0.fetch.SquashCycles                8731086                       # Number of cycles fetch has spent squashing
system.cpu0.fetch.branchRate                 0.137978                       # Number of branch fetches per cycle
system.cpu0.fetch.icacheStallCycles         417461693                       # Number of cycles fetch is stalled on an Icache miss
system.cpu0.fetch.predictedBranches          72803121                       # Number of branches that fetch has predicted taken
system.cpu0.fetch.rate                       0.581511                       # Number of inst fetches per cycle
system.cpu0.fetch.rateDist::samples         859578726                       # Number of instructions fetched each cycle (Total)
system.cpu0.fetch.rateDist::mean             0.639948                       # Number of instructions fetched each cycle (Total)
system.cpu0.fetch.rateDist::stdev            0.896112                       # Number of instructions fetched each cycle (Total)
system.cpu0.fetch.rateDist::underflows              0      0.00%      0.00% # Number of instructions fetched each cycle (Total)
system.cpu0.fetch.rateDist::0               463678137     53.94%     53.94% # Number of instructions fetched each cycle (Total)
system.cpu0.fetch.rateDist::1               298190768     34.69%     88.63% # Number of instructions fetched each cycle (Total)
system.cpu0.fetch.rateDist::2                58018387      6.75%     95.38% # Number of instructions fetched each cycle (Total)
system.cpu0.fetch.rateDist::3                32298348      3.76%     99.14% # Number of instructions fetched each cycle (Total)
system.cpu0.fetch.rateDist::4                 3184740      0.37%     99.51% # Number of instructions fetched each cycle (Total)
system.cpu0.fetch.rateDist::5                 2085666      0.24%     99.75% # Number of instructions fetched each cycle (Total)
system.cpu0.fetch.rateDist::6                   83475      0.01%     99.76% # Number of instructions fetched each cycle (Total)
system.cpu0.fetch.rateDist::7                 1018584      0.12%     99.88% # Number of instructions fetched each cycle (Total)
system.cpu0.fetch.rateDist::8                 1020621      0.12%    100.00% # Number of instructions fetched each cycle (Total)
system.cpu0.fetch.rateDist::overflows               0      0.00%    100.00% # Number of instructions fetched each cycle (Total)
system.cpu0.fetch.rateDist::min_value               0                       # Number of instructions fetched each cycle (Total)
system.cpu0.fetch.rateDist::max_value               8                       # Number of instructions fetched each cycle (Total)
system.cpu0.fetch.rateDist::total           859578726                       # Number of instructions fetched each cycle (Total)
system.cpu0.fp_regfile_reads                       26                       # number of floating regfile reads
system.cpu0.fp_regfile_writes                      11                       # number of floating regfile writes
system.cpu0.idleCycles                       85316729                       # Total number of cycles that the CPU has spent unscheduled due to idling
system.cpu0.iew.branchMispredicts             2778069                       # Number of branch mispredicts detected at execute
system.cpu0.iew.exec_branches               127288604                       # Number of branches executed
system.cpu0.iew.exec_nop                            0                       # number of nop insts executed
system.cpu0.iew.exec_rate                    0.564301                       # Inst execution rate
system.cpu0.iew.exec_refs                   241847736                       # number of memory reference insts executed
system.cpu0.iew.exec_stores                  67699988                       # Number of stores executed
system.cpu0.iew.exec_swp                            0                       # number of swp insts executed
system.cpu0.iew.iewBlockCycles               32615419                       # Number of cycles IEW is blocking
system.cpu0.iew.iewDispLoadInsts            174307770                       # Number of dispatched load instructions
system.cpu0.iew.iewDispNonSpecInsts            475994                       # Number of dispatched non-speculative instructions
system.cpu0.iew.iewDispSquashedInsts           675850                       # Number of squashed instructions skipped by dispatch
system.cpu0.iew.iewDispStoreInsts            68824819                       # Number of dispatched store instructions
system.cpu0.iew.iewDispatchedInsts          537961652                       # Number of instructions dispatched to IQ
system.cpu0.iew.iewExecLoadInsts            174147748                       # Number of load instructions executed
system.cpu0.iew.iewExecSquashedInsts          2728412                       # Number of squashed instructions skipped in execute
system.cpu0.iew.iewExecutedInsts            533205114                       # Number of executed instructions
system.cpu0.iew.iewIQFullEvents                263928                       # Number of times the IQ has become full, causing a stall
system.cpu0.iew.iewIdleCycles                       0                       # Number of cycles IEW is idle
system.cpu0.iew.iewLSQFullEvents              1265062                       # Number of times the LSQ has become full, causing a stall
system.cpu0.iew.iewSquashCycles               2778316                       # Number of cycles IEW is squashing
system.cpu0.iew.iewUnblockCycles              1988304                       # Number of cycles IEW is unblocking
system.cpu0.iew.lsq.thread0.blockedLoads            0                       # Number of blocked loads due to partial load-store forwarding
system.cpu0.iew.lsq.thread0.cacheBlocked        21550                       # Number of times an access to memory failed due to the cache being blocked
system.cpu0.iew.lsq.thread0.forwLoads         9796974                       # Number of loads that had data forwarded from stores
system.cpu0.iew.lsq.thread0.ignoredResponses          313                       # Number of memory responses ignored because the instruction is squashed
system.cpu0.iew.lsq.thread0.invAddrLoads            0                       # Number of loads ignored due to an invalid address
system.cpu0.iew.lsq.thread0.invAddrSwpfs            0                       # Number of software prefetches ignored due to an invalid address
system.cpu0.iew.lsq.thread0.memOrderViolation         5976                       # Number of memory ordering violations
system.cpu0.iew.lsq.thread0.rescheduledLoads      2411524                       # Number of loads that were rescheduled
system.cpu0.iew.lsq.thread0.squashedLoads     11651627                       # Number of loads squashed
system.cpu0.iew.lsq.thread0.squashedStores      3136243                       # Number of stores squashed
system.cpu0.iew.memOrderViolationEvents          5976                       # Number of memory order violations
system.cpu0.iew.predictedNotTakenIncorrect       148742                       # Number of branches that were predicted not taken incorrectly
system.cpu0.iew.predictedTakenIncorrect       2629327                       # Number of branches that were predicted taken incorrectly
system.cpu0.iew.wb_consumers                216223015                       # num instructions consuming a value
system.cpu0.iew.wb_count                    528545736                       # cumulative count of insts written-back
system.cpu0.iew.wb_fanout                    0.890571                       # average fanout of values written-back
system.cpu0.iew.wb_producers                192562035                       # num instructions producing a value
system.cpu0.iew.wb_rate                      0.559370                       # insts written-back per cycle
system.cpu0.iew.wb_sent                     528558917                       # cumulative count of insts sent to commit
system.cpu0.int_regfile_reads               645882405                       # number of integer regfile reads
system.cpu0.int_regfile_writes              338424909                       # number of integer regfile writes
system.cpu0.ipc                              0.542611                       # IPC: Instructions Per Cycle
system.cpu0.ipc_total                        0.542611                       # IPC: Total IPC of All Threads
system.cpu0.iq.FU_type_0::No_OpClass           766313      0.14%      0.14% # Type of FU issued
system.cpu0.iq.FU_type_0::IntAlu            286107165     53.38%     53.53% # Type of FU issued
system.cpu0.iq.FU_type_0::IntMult             4139915      0.77%     54.30% # Type of FU issued
system.cpu0.iq.FU_type_0::IntDiv              1018022      0.19%     54.49% # Type of FU issued
system.cpu0.iq.FU_type_0::FloatAdd                  0      0.00%     54.49% # Type of FU issued
system.cpu0.iq.FU_type_0::FloatCmp                  2      0.00%     54.49% # Type of FU issued
system.cpu0.iq.FU_type_0::FloatCvt                  6      0.00%     54.49% # Type of FU issued
system.cpu0.iq.FU_type_0::FloatMult                 0      0.00%     54.49% # Type of FU issued
system.cpu0.iq.FU_type_0::FloatMultAcc              0      0.00%     54.49% # Type of FU issued
system.cpu0.iq.FU_type_0::FloatDiv                  1      0.00%     54.49% # Type of FU issued
system.cpu0.iq.FU_type_0::FloatMisc                 2      0.00%     54.49% # Type of FU issued
system.cpu0.iq.FU_type_0::FloatSqrt                 0      0.00%     54.49% # Type of FU issued
system.cpu0.iq.FU_type_0::SimdAdd                   0      0.00%     54.49% # Type of FU issued
system.cpu0.iq.FU_type_0::SimdAddAcc                0      0.00%     54.49% # Type of FU issued
system.cpu0.iq.FU_type_0::SimdAlu                   0      0.00%     54.49% # Type of FU issued
system.cpu0.iq.FU_type_0::SimdCmp                   0      0.00%     54.49% # Type of FU issued
system.cpu0.iq.FU_type_0::SimdCvt                   0      0.00%     54.49% # Type of FU issued
system.cpu0.iq.FU_type_0::SimdMisc                  0      0.00%     54.49% # Type of FU issued
system.cpu0.iq.FU_type_0::SimdMult                  0      0.00%     54.49% # Type of FU issued
system.cpu0.iq.FU_type_0::SimdMultAcc               0      0.00%     54.49% # Type of FU issued
system.cpu0.iq.FU_type_0::SimdShift                 0      0.00%     54.49% # Type of FU issued
system.cpu0.iq.FU_type_0::SimdShiftAcc              0      0.00%     54.49% # Type of FU issued
system.cpu0.iq.FU_type_0::SimdDiv                   0      0.00%     54.49% # Type of FU issued
system.cpu0.iq.FU_type_0::SimdSqrt                  0      0.00%     54.49% # Type of FU issued
system.cpu0.iq.FU_type_0::SimdFloatAdd              0      0.00%     54.49% # Type of FU issued
system.cpu0.iq.FU_type_0::SimdFloatAlu              0      0.00%     54.49% # Type of FU issued
system.cpu0.iq.FU_type_0::SimdFloatCmp              0      0.00%     54.49% # Type of FU issued
system.cpu0.iq.FU_type_0::SimdFloatCvt              0      0.00%     54.49% # Type of FU issued
system.cpu0.iq.FU_type_0::SimdFloatDiv              0      0.00%     54.49% # Type of FU issued
system.cpu0.iq.FU_type_0::SimdFloatMisc             0      0.00%     54.49% # Type of FU issued
system.cpu0.iq.FU_type_0::SimdFloatMult             0      0.00%     54.49% # Type of FU issued
system.cpu0.iq.FU_type_0::SimdFloatMultAcc            0      0.00%     54.49% # Type of FU issued
system.cpu0.iq.FU_type_0::SimdFloatSqrt             0      0.00%     54.49% # Type of FU issued
system.cpu0.iq.FU_type_0::SimdReduceAdd             0      0.00%     54.49% # Type of FU issued
system.cpu0.iq.FU_type_0::SimdReduceAlu             0      0.00%     54.49% # Type of FU issued
system.cpu0.iq.FU_type_0::SimdReduceCmp             0      0.00%     54.49% # Type of FU issued
system.cpu0.iq.FU_type_0::SimdFloatReduceAdd            0      0.00%     54.49% # Type of FU issued
system.cpu0.iq.FU_type_0::SimdFloatReduceCmp            0      0.00%     54.49% # Type of FU issued
system.cpu0.iq.FU_type_0::SimdAes                   0      0.00%     54.49% # Type of FU issued
system.cpu0.iq.FU_type_0::SimdAesMix                0      0.00%     54.49% # Type of FU issued
system.cpu0.iq.FU_type_0::SimdSha1Hash              0      0.00%     54.49% # Type of FU issued
system.cpu0.iq.FU_type_0::SimdSha1Hash2             0      0.00%     54.49% # Type of FU issued
system.cpu0.iq.FU_type_0::SimdSha256Hash            0      0.00%     54.49% # Type of FU issued
system.cpu0.iq.FU_type_0::SimdSha256Hash2            0      0.00%     54.49% # Type of FU issued
system.cpu0.iq.FU_type_0::SimdShaSigma2             0      0.00%     54.49% # Type of FU issued
system.cpu0.iq.FU_type_0::SimdShaSigma3             0      0.00%     54.49% # Type of FU issued
system.cpu0.iq.FU_type_0::SimdPredAlu               0      0.00%     54.49% # Type of FU issued
system.cpu0.iq.FU_type_0::MemRead           175816015     32.81%     87.30% # Type of FU issued
system.cpu0.iq.FU_type_0::MemWrite           68086067     12.70%    100.00% # Type of FU issued
system.cpu0.iq.FU_type_0::FloatMemRead              4      0.00%    100.00% # Type of FU issued
system.cpu0.iq.FU_type_0::FloatMemWrite            14      0.00%    100.00% # Type of FU issued
system.cpu0.iq.FU_type_0::IprAccess                 0      0.00%    100.00% # Type of FU issued
system.cpu0.iq.FU_type_0::InstPrefetch              0      0.00%    100.00% # Type of FU issued
system.cpu0.iq.FU_type_0::total             535933526                       # Type of FU issued
system.cpu0.iq.fp_alu_accesses                     31                       # Number of floating point alu accesses
system.cpu0.iq.fp_inst_queue_reads                 60                       # Number of floating instruction queue reads
system.cpu0.iq.fp_inst_queue_wakeup_accesses           29                       # Number of floating instruction queue wakeup accesses
system.cpu0.iq.fp_inst_queue_writes                29                       # Number of floating instruction queue writes
system.cpu0.iq.fu_busy_cnt                     441093                       # FU busy when requested
system.cpu0.iq.fu_busy_rate                  0.000823                       # FU busy rate (busy events/executed inst)
system.cpu0.iq.fu_full::No_OpClass                  0      0.00%      0.00% # attempts to use FU when none available
system.cpu0.iq.fu_full::IntAlu                  94686     21.47%     21.47% # attempts to use FU when none available
system.cpu0.iq.fu_full::IntMult                     0      0.00%     21.47% # attempts to use FU when none available
system.cpu0.iq.fu_full::IntDiv                      0      0.00%     21.47% # attempts to use FU when none available
system.cpu0.iq.fu_full::FloatAdd                    0      0.00%     21.47% # attempts to use FU when none available
system.cpu0.iq.fu_full::FloatCmp                    0      0.00%     21.47% # attempts to use FU when none available
system.cpu0.iq.fu_full::FloatCvt                    0      0.00%     21.47% # attempts to use FU when none available
system.cpu0.iq.fu_full::FloatMult                   0      0.00%     21.47% # attempts to use FU when none available
system.cpu0.iq.fu_full::FloatMultAcc                0      0.00%     21.47% # attempts to use FU when none available
system.cpu0.iq.fu_full::FloatDiv                    0      0.00%     21.47% # attempts to use FU when none available
system.cpu0.iq.fu_full::FloatMisc                   0      0.00%     21.47% # attempts to use FU when none available
system.cpu0.iq.fu_full::FloatSqrt                   0      0.00%     21.47% # attempts to use FU when none available
system.cpu0.iq.fu_full::SimdAdd                     0      0.00%     21.47% # attempts to use FU when none available
system.cpu0.iq.fu_full::SimdAddAcc                  0      0.00%     21.47% # attempts to use FU when none available
system.cpu0.iq.fu_full::SimdAlu                     0      0.00%     21.47% # attempts to use FU when none available
system.cpu0.iq.fu_full::SimdCmp                     0      0.00%     21.47% # attempts to use FU when none available
system.cpu0.iq.fu_full::SimdCvt                     0      0.00%     21.47% # attempts to use FU when none available
system.cpu0.iq.fu_full::SimdMisc                    0      0.00%     21.47% # attempts to use FU when none available
system.cpu0.iq.fu_full::SimdMult                    0      0.00%     21.47% # attempts to use FU when none available
system.cpu0.iq.fu_full::SimdMultAcc                 0      0.00%     21.47% # attempts to use FU when none available
system.cpu0.iq.fu_full::SimdShift                   0      0.00%     21.47% # attempts to use FU when none available
system.cpu0.iq.fu_full::SimdShiftAcc                0      0.00%     21.47% # attempts to use FU when none available
system.cpu0.iq.fu_full::SimdDiv                     0      0.00%     21.47% # attempts to use FU when none available
system.cpu0.iq.fu_full::SimdSqrt                    0      0.00%     21.47% # attempts to use FU when none available
system.cpu0.iq.fu_full::SimdFloatAdd                0      0.00%     21.47% # attempts to use FU when none available
system.cpu0.iq.fu_full::SimdFloatAlu                0      0.00%     21.47% # attempts to use FU when none available
system.cpu0.iq.fu_full::SimdFloatCmp                0      0.00%     21.47% # attempts to use FU when none available
system.cpu0.iq.fu_full::SimdFloatCvt                0      0.00%     21.47% # attempts to use FU when none available
system.cpu0.iq.fu_full::SimdFloatDiv                0      0.00%     21.47% # attempts to use FU when none available
system.cpu0.iq.fu_full::SimdFloatMisc               0      0.00%     21.47% # attempts to use FU when none available
system.cpu0.iq.fu_full::SimdFloatMult               0      0.00%     21.47% # attempts to use FU when none available
system.cpu0.iq.fu_full::SimdFloatMultAcc            0      0.00%     21.47% # attempts to use FU when none available
system.cpu0.iq.fu_full::SimdFloatSqrt               0      0.00%     21.47% # attempts to use FU when none available
system.cpu0.iq.fu_full::SimdReduceAdd               0      0.00%     21.47% # attempts to use FU when none available
system.cpu0.iq.fu_full::SimdReduceAlu               0      0.00%     21.47% # attempts to use FU when none available
system.cpu0.iq.fu_full::SimdReduceCmp               0      0.00%     21.47% # attempts to use FU when none available
system.cpu0.iq.fu_full::SimdFloatReduceAdd            0      0.00%     21.47% # attempts to use FU when none available
system.cpu0.iq.fu_full::SimdFloatReduceCmp            0      0.00%     21.47% # attempts to use FU when none available
system.cpu0.iq.fu_full::SimdAes                     0      0.00%     21.47% # attempts to use FU when none available
system.cpu0.iq.fu_full::SimdAesMix                  0      0.00%     21.47% # attempts to use FU when none available
system.cpu0.iq.fu_full::SimdSha1Hash                0      0.00%     21.47% # attempts to use FU when none available
system.cpu0.iq.fu_full::SimdSha1Hash2               0      0.00%     21.47% # attempts to use FU when none available
system.cpu0.iq.fu_full::SimdSha256Hash              0      0.00%     21.47% # attempts to use FU when none available
system.cpu0.iq.fu_full::SimdSha256Hash2             0      0.00%     21.47% # attempts to use FU when none available
system.cpu0.iq.fu_full::SimdShaSigma2               0      0.00%     21.47% # attempts to use FU when none available
system.cpu0.iq.fu_full::SimdShaSigma3               0      0.00%     21.47% # attempts to use FU when none available
system.cpu0.iq.fu_full::SimdPredAlu                 0      0.00%     21.47% # attempts to use FU when none available
system.cpu0.iq.fu_full::MemRead                316630     71.78%     93.25% # attempts to use FU when none available
system.cpu0.iq.fu_full::MemWrite                29775      6.75%    100.00% # attempts to use FU when none available
system.cpu0.iq.fu_full::FloatMemRead                0      0.00%    100.00% # attempts to use FU when none available
system.cpu0.iq.fu_full::FloatMemWrite               2      0.00%    100.00% # attempts to use FU when none available
system.cpu0.iq.fu_full::IprAccess                   0      0.00%    100.00% # attempts to use FU when none available
system.cpu0.iq.fu_full::InstPrefetch                0      0.00%    100.00% # attempts to use FU when none available
system.cpu0.iq.int_alu_accesses             535608275                       # Number of integer alu accesses
system.cpu0.iq.int_inst_queue_reads        1931893205                       # Number of integer instruction queue reads
system.cpu0.iq.int_inst_queue_wakeup_accesses    528545707                       # Number of integer instruction queue wakeup accesses
system.cpu0.iq.int_inst_queue_writes        562835409                       # Number of integer instruction queue writes
system.cpu0.iq.iqInstsAdded                 536543802                       # Number of instructions added to the IQ (excludes non-spec)
system.cpu0.iq.iqInstsIssued                535933526                       # Number of instructions issued
system.cpu0.iq.iqNonSpecInstsAdded            1417850                       # Number of non-speculative instructions added to the IQ
system.cpu0.iq.iqSquashedInstsExamined       24867812                       # Number of squashed instructions iterated over during squash; mainly for profiling
system.cpu0.iq.iqSquashedInstsIssued             6394                       # Number of squashed instructions issued
system.cpu0.iq.iqSquashedNonSpecRemoved        267630                       # Number of squashed non-spec instructions that were removed
system.cpu0.iq.iqSquashedOperandsExamined     10287209                       # Number of squashed operands that are examined and possibly removed from graph
system.cpu0.iq.issued_per_cycle::samples    859578726                       # Number of insts issued each cycle
system.cpu0.iq.issued_per_cycle::mean        0.623484                       # Number of insts issued each cycle
system.cpu0.iq.issued_per_cycle::stdev       0.809612                       # Number of insts issued each cycle
system.cpu0.iq.issued_per_cycle::underflows            0      0.00%      0.00% # Number of insts issued each cycle
system.cpu0.iq.issued_per_cycle::0          465834037     54.19%     54.19% # Number of insts issued each cycle
system.cpu0.iq.issued_per_cycle::1          278636749     32.42%     86.61% # Number of insts issued each cycle
system.cpu0.iq.issued_per_cycle::2           95552320     11.12%     97.72% # Number of insts issued each cycle
system.cpu0.iq.issued_per_cycle::3           14710069      1.71%     99.44% # Number of insts issued each cycle
system.cpu0.iq.issued_per_cycle::4            3360552      0.39%     99.83% # Number of insts issued each cycle
system.cpu0.iq.issued_per_cycle::5             404676      0.05%     99.87% # Number of insts issued each cycle
system.cpu0.iq.issued_per_cycle::6            1002898      0.12%     99.99% # Number of insts issued each cycle
system.cpu0.iq.issued_per_cycle::7              40446      0.00%    100.00% # Number of insts issued each cycle
system.cpu0.iq.issued_per_cycle::8              36979      0.00%    100.00% # Number of insts issued each cycle
system.cpu0.iq.issued_per_cycle::overflows            0      0.00%    100.00% # Number of insts issued each cycle
system.cpu0.iq.issued_per_cycle::min_value            0                       # Number of insts issued each cycle
system.cpu0.iq.issued_per_cycle::max_value            8                       # Number of insts issued each cycle
system.cpu0.iq.issued_per_cycle::total      859578726                       # Number of insts issued each cycle
system.cpu0.iq.rate                          0.567188                       # Inst issue rate
system.cpu0.iq.vec_alu_accesses                     0                       # Number of vector alu accesses
system.cpu0.iq.vec_inst_queue_reads                 0                       # Number of vector instruction queue reads
system.cpu0.iq.vec_inst_queue_wakeup_accesses            0                       # Number of vector instruction queue wakeup accesses
system.cpu0.iq.vec_inst_queue_writes                0                       # Number of vector instruction queue writes
system.cpu0.itb.accesses                            0                       # DTB accesses
system.cpu0.itb.hits                                0                       # DTB hits
system.cpu0.itb.misses                              0                       # DTB misses
system.cpu0.itb.read_accesses                       0                       # DTB read accesses
system.cpu0.itb.read_hits                           0                       # DTB read hits
system.cpu0.itb.read_misses                         0                       # DTB read misses
system.cpu0.itb.write_accesses                      0                       # DTB write accesses
system.cpu0.itb.write_hits                          0                       # DTB write hits
system.cpu0.itb.write_misses                        0                       # DTB write misses
system.cpu0.memDep0.conflictingLoads          4597650                       # Number of conflicting loads.
system.cpu0.memDep0.conflictingStores          597350                       # Number of conflicting stores.
system.cpu0.memDep0.insertedLoads           174307770                       # Number of loads inserted to the mem dependence unit.
system.cpu0.memDep0.insertedStores           68824819                       # Number of stores inserted to the mem dependence unit.
system.cpu0.misc_regfile_reads                    930                       # number of misc regfile reads
system.cpu0.misc_regfile_writes                    11                       # number of misc regfile writes
system.cpu0.numCycles                       944895455                       # number of cpu cycles simulated
system.cpu0.numWorkItemsCompleted                   0                       # number of work items this cpu completed
system.cpu0.numWorkItemsStarted                     0                       # number of work items this cpu started
system.cpu0.quiesceCycles                    11145559                       # Total number of cycles that CPU has spent quiesced or waiting for an interrupt
system.cpu0.rename.BlockCycles               36426898                       # Number of cycles rename is blocking
system.cpu0.rename.CommittedMaps            327228578                       # Number of HB maps that are committed
system.cpu0.rename.IQFullEvents               2239363                       # Number of times rename has blocked due to IQ full
system.cpu0.rename.IdleCycles               422612687                       # Number of cycles rename is idle
system.cpu0.rename.LQFullEvents               4477707                       # Number of times rename has blocked due to LQ full
system.cpu0.rename.ROBFullEvents                    6                       # Number of times rename has blocked due to ROB full
system.cpu0.rename.RenameLookups            654987298                       # Number of register rename lookups that rename has made
system.cpu0.rename.RenamedInsts             540871284                       # Number of instructions processed by rename
system.cpu0.rename.RenamedOperands          347172703                       # Number of destination operands rename has renamed
system.cpu0.rename.RunCycles                384345625                       # Number of cycles rename is running
system.cpu0.rename.SQFullEvents               6620308                       # Number of times rename has blocked due to SQ full
system.cpu0.rename.SquashCycles               2778316                       # Number of cycles rename is squashing
system.cpu0.rename.UnblockCycles             13326938                       # Number of cycles rename is unblocking
system.cpu0.rename.UndoneMaps                19944125                       # Number of HB maps that are undone due to squashing
system.cpu0.rename.fp_rename_lookups               26                       # Number of floating rename lookups
system.cpu0.rename.int_rename_lookups       654987272                       # Number of integer rename lookups
system.cpu0.rename.serializeStallCycles         88262                       # count of cycles rename stalled for serializing inst
system.cpu0.rename.serializingInsts              2881                       # count of serializing insts renamed
system.cpu0.rename.skidInsts                  5008071                       # count of insts added to the skid buffer
system.cpu0.rename.tempSerializingInsts          2876                       # count of temporary serializing insts renamed
system.cpu0.rob.rob_reads                  1374196829                       # The number of ROB reads
system.cpu0.rob.rob_writes                 1080848515                       # The number of ROB writes
system.cpu0.timesIdled                       15829821                       # Number of times that the entire CPU went into an idle state and unscheduled itself
system.cpu0.workload.numSyscalls                  914                       # Number of system calls
system.cpu1.branchPred.BTBCorrect                   0                       # Number of correct BTB predictions (this stat may not work properly.
system.cpu1.branchPred.BTBHitPct            61.201542                       # BTB Hit Percentage
system.cpu1.branchPred.BTBHits                 807394                       # Number of BTB hits
system.cpu1.branchPred.BTBLookups             1319238                       # Number of BTB lookups
system.cpu1.branchPred.RASInCorrect                 0                       # Number of incorrect RAS predictions.
system.cpu1.branchPred.condIncorrect             7018                       # Number of conditional branches incorrect
system.cpu1.branchPred.condPredicted          1829360                       # Number of conditional branches predicted
system.cpu1.branchPred.indirectHits               907                       # Number of indirect target hits.
system.cpu1.branchPred.indirectLookups           1280                       # Number of indirect predictor lookups.
system.cpu1.branchPred.indirectMisses             373                       # Number of indirect misses.
system.cpu1.branchPred.lookups                1832470                       # Number of BP lookups
system.cpu1.branchPred.usedRAS                      0                       # Number of times the RAS was used to get a target.
system.cpu1.branchPredindirectMispredicted          217                       # Number of mispredicted indirect branches.
system.cpu1.commit.amos                        381874                       # Number of atomic instructions committed
system.cpu1.commit.branchMispredicts             6672                       # The number of times a branch was mispredicted
system.cpu1.commit.branches                   1700273                       # Number of branches committed
system.cpu1.commit.bw_lim_events               214275                       # number cycles where commit BW limit reached
system.cpu1.commit.commitNonSpecStalls        1146098                       # The number of times commit has been forced to stall to communicate backwards
system.cpu1.commit.commitSquashedInsts         334121                       # The number of squashed insts skipped by commit
system.cpu1.commit.committedInsts             8255915                       # Number of instructions committed
system.cpu1.commit.committedOps               8637939                       # Number of ops (including micro ops) committed
system.cpu1.commit.committed_per_cycle::samples     47822575                       # Number of insts commited each cycle
system.cpu1.commit.committed_per_cycle::mean     0.180625                       # Number of insts commited each cycle
system.cpu1.commit.committed_per_cycle::stdev     0.879377                       # Number of insts commited each cycle
system.cpu1.commit.committed_per_cycle::underflows            0      0.00%      0.00% # Number of insts commited each cycle
system.cpu1.commit.committed_per_cycle::0     44595016     93.25%     93.25% # Number of insts commited each cycle
system.cpu1.commit.committed_per_cycle::1      1537532      3.22%     96.47% # Number of insts commited each cycle
system.cpu1.commit.committed_per_cycle::2       422120      0.88%     97.35% # Number of insts commited each cycle
system.cpu1.commit.committed_per_cycle::3       479344      1.00%     98.35% # Number of insts commited each cycle
system.cpu1.commit.committed_per_cycle::4       163773      0.34%     98.69% # Number of insts commited each cycle
system.cpu1.commit.committed_per_cycle::5        37116      0.08%     98.77% # Number of insts commited each cycle
system.cpu1.commit.committed_per_cycle::6       350530      0.73%     99.50% # Number of insts commited each cycle
system.cpu1.commit.committed_per_cycle::7        22869      0.05%     99.55% # Number of insts commited each cycle
system.cpu1.commit.committed_per_cycle::8       214275      0.45%    100.00% # Number of insts commited each cycle
system.cpu1.commit.committed_per_cycle::overflows            0      0.00%    100.00% # Number of insts commited each cycle
system.cpu1.commit.committed_per_cycle::min_value            0                       # Number of insts commited each cycle
system.cpu1.commit.committed_per_cycle::max_value            8                       # Number of insts commited each cycle
system.cpu1.commit.committed_per_cycle::total     47822575                       # Number of insts commited each cycle
system.cpu1.commit.fp_insts                        12                       # Number of committed floating point instructions.
system.cpu1.commit.function_calls                1584                       # Number of function calls committed.
system.cpu1.commit.int_insts                  7873684                       # Number of committed integer instructions.
system.cpu1.commit.loads                      2828800                       # Number of loads committed
system.cpu1.commit.membars                     763800                       # Number of memory barriers committed
system.cpu1.commit.op_class_0::No_OpClass       763800      8.84%      8.84% # Class of committed instruction
system.cpu1.commit.op_class_0::IntAlu         4233519     49.01%     57.85% # Class of committed instruction
system.cpu1.commit.op_class_0::IntMult             29      0.00%     57.85% # Class of committed instruction
system.cpu1.commit.op_class_0::IntDiv              58      0.00%     57.85% # Class of committed instruction
system.cpu1.commit.op_class_0::FloatAdd             0      0.00%     57.85% # Class of committed instruction
system.cpu1.commit.op_class_0::FloatCmp             0      0.00%     57.85% # Class of committed instruction
system.cpu1.commit.op_class_0::FloatCvt             0      0.00%     57.85% # Class of committed instruction
system.cpu1.commit.op_class_0::FloatMult            0      0.00%     57.85% # Class of committed instruction
system.cpu1.commit.op_class_0::FloatMultAcc            0      0.00%     57.85% # Class of committed instruction
system.cpu1.commit.op_class_0::FloatDiv             0      0.00%     57.85% # Class of committed instruction
system.cpu1.commit.op_class_0::FloatMisc            0      0.00%     57.85% # Class of committed instruction
system.cpu1.commit.op_class_0::FloatSqrt            0      0.00%     57.85% # Class of committed instruction
system.cpu1.commit.op_class_0::SimdAdd              0      0.00%     57.85% # Class of committed instruction
system.cpu1.commit.op_class_0::SimdAddAcc            0      0.00%     57.85% # Class of committed instruction
system.cpu1.commit.op_class_0::SimdAlu              0      0.00%     57.85% # Class of committed instruction
system.cpu1.commit.op_class_0::SimdCmp              0      0.00%     57.85% # Class of committed instruction
system.cpu1.commit.op_class_0::SimdCvt              0      0.00%     57.85% # Class of committed instruction
system.cpu1.commit.op_class_0::SimdMisc             0      0.00%     57.85% # Class of committed instruction
system.cpu1.commit.op_class_0::SimdMult             0      0.00%     57.85% # Class of committed instruction
system.cpu1.commit.op_class_0::SimdMultAcc            0      0.00%     57.85% # Class of committed instruction
system.cpu1.commit.op_class_0::SimdShift            0      0.00%     57.85% # Class of committed instruction
system.cpu1.commit.op_class_0::SimdShiftAcc            0      0.00%     57.85% # Class of committed instruction
system.cpu1.commit.op_class_0::SimdDiv              0      0.00%     57.85% # Class of committed instruction
system.cpu1.commit.op_class_0::SimdSqrt             0      0.00%     57.85% # Class of committed instruction
system.cpu1.commit.op_class_0::SimdFloatAdd            0      0.00%     57.85% # Class of committed instruction
system.cpu1.commit.op_class_0::SimdFloatAlu            0      0.00%     57.85% # Class of committed instruction
system.cpu1.commit.op_class_0::SimdFloatCmp            0      0.00%     57.85% # Class of committed instruction
system.cpu1.commit.op_class_0::SimdFloatCvt            0      0.00%     57.85% # Class of committed instruction
system.cpu1.commit.op_class_0::SimdFloatDiv            0      0.00%     57.85% # Class of committed instruction
system.cpu1.commit.op_class_0::SimdFloatMisc            0      0.00%     57.85% # Class of committed instruction
system.cpu1.commit.op_class_0::SimdFloatMult            0      0.00%     57.85% # Class of committed instruction
system.cpu1.commit.op_class_0::SimdFloatMultAcc            0      0.00%     57.85% # Class of committed instruction
system.cpu1.commit.op_class_0::SimdFloatSqrt            0      0.00%     57.85% # Class of committed instruction
system.cpu1.commit.op_class_0::SimdReduceAdd            0      0.00%     57.85% # Class of committed instruction
system.cpu1.commit.op_class_0::SimdReduceAlu            0      0.00%     57.85% # Class of committed instruction
system.cpu1.commit.op_class_0::SimdReduceCmp            0      0.00%     57.85% # Class of committed instruction
system.cpu1.commit.op_class_0::SimdFloatReduceAdd            0      0.00%     57.85% # Class of committed instruction
system.cpu1.commit.op_class_0::SimdFloatReduceCmp            0      0.00%     57.85% # Class of committed instruction
system.cpu1.commit.op_class_0::SimdAes              0      0.00%     57.85% # Class of committed instruction
system.cpu1.commit.op_class_0::SimdAesMix            0      0.00%     57.85% # Class of committed instruction
system.cpu1.commit.op_class_0::SimdSha1Hash            0      0.00%     57.85% # Class of committed instruction
system.cpu1.commit.op_class_0::SimdSha1Hash2            0      0.00%     57.85% # Class of committed instruction
system.cpu1.commit.op_class_0::SimdSha256Hash            0      0.00%     57.85% # Class of committed instruction
system.cpu1.commit.op_class_0::SimdSha256Hash2            0      0.00%     57.85% # Class of committed instruction
system.cpu1.commit.op_class_0::SimdShaSigma2            0      0.00%     57.85% # Class of committed instruction
system.cpu1.commit.op_class_0::SimdShaSigma3            0      0.00%     57.85% # Class of committed instruction
system.cpu1.commit.op_class_0::SimdPredAlu            0      0.00%     57.85% # Class of committed instruction
system.cpu1.commit.op_class_0::MemRead        3210674     37.17%     95.02% # Class of committed instruction
system.cpu1.commit.op_class_0::MemWrite        429847      4.98%    100.00% # Class of committed instruction
system.cpu1.commit.op_class_0::FloatMemRead            0      0.00%    100.00% # Class of committed instruction
system.cpu1.commit.op_class_0::FloatMemWrite           12      0.00%    100.00% # Class of committed instruction
system.cpu1.commit.op_class_0::IprAccess            0      0.00%    100.00% # Class of committed instruction
system.cpu1.commit.op_class_0::InstPrefetch            0      0.00%    100.00% # Class of committed instruction
system.cpu1.commit.op_class_0::total          8637939                       # Class of committed instruction
system.cpu1.commit.refs                       3640533                       # Number of memory references committed
system.cpu1.commit.swp_count                        0                       # Number of s/w prefetches committed
system.cpu1.commit.vec_insts                        0                       # Number of committed Vector instructions.
system.cpu1.committedInsts                    8255915                       # Number of Instructions Simulated
system.cpu1.committedOps                      8637939                       # Number of Ops (including micro ops) Simulated
system.cpu1.cpi                              5.806034                       # CPI: Cycles Per Instruction
system.cpu1.cpi_total                        5.806034                       # CPI: Total CPI of All Threads
system.cpu1.decode.BlockedCycles             45731105                       # Number of cycles decode is blocked
system.cpu1.decode.BranchMispred                  359                       # Number of times decode detected a branch misprediction
system.cpu1.decode.BranchResolved              798684                       # Number of times decode resolved a branch
system.cpu1.decode.DecodedInsts               9064948                       # Number of instructions handled by decode
system.cpu1.decode.IdleCycles                  347780                       # Number of cycles decode is idle
system.cpu1.decode.RunCycles                   964929                       # Number of cycles decode is running
system.cpu1.decode.SquashCycles                  6818                       # Number of cycles decode is squashing
system.cpu1.decode.SquashedInsts                  701                       # Number of squashed instructions handled by decode
system.cpu1.decode.UnblockCycles               817700                       # Number of cycles decode is unblocking
system.cpu1.dtb.accesses                            0                       # DTB accesses
system.cpu1.dtb.hits                                0                       # DTB hits
system.cpu1.dtb.misses                              0                       # DTB misses
system.cpu1.dtb.read_accesses                       0                       # DTB read accesses
system.cpu1.dtb.read_hits                           0                       # DTB read hits
system.cpu1.dtb.read_misses                         0                       # DTB read misses
system.cpu1.dtb.write_accesses                      0                       # DTB write accesses
system.cpu1.dtb.write_hits                          0                       # DTB write hits
system.cpu1.dtb.write_misses                        0                       # DTB write misses
system.cpu1.fetch.Branches                    1832470                       # Number of branches that fetch encountered
system.cpu1.fetch.CacheLines                   768578                       # Number of cache lines fetched
system.cpu1.fetch.Cycles                     47066364                       # Number of cycles fetch has run and was not squashing or blocked
system.cpu1.fetch.IcacheSquashes                  524                       # Number of outstanding Icache misses that were squashed
system.cpu1.fetch.Insts                       8735128                       # Number of instructions fetch has processed
system.cpu1.fetch.MiscStallCycles                   1                       # Number of cycles fetch has spent waiting on interrupts, or bad addresses, or out of MSHRs
system.cpu1.fetch.SquashCycles                  14328                       # Number of cycles fetch has spent squashing
system.cpu1.fetch.branchRate                 0.038229                       # Number of branch fetches per cycle
system.cpu1.fetch.icacheStallCycles            794803                       # Number of cycles fetch is stalled on an Icache miss
system.cpu1.fetch.predictedBranches            808301                       # Number of branches that fetch has predicted taken
system.cpu1.fetch.rate                       0.182232                       # Number of inst fetches per cycle
system.cpu1.fetch.rateDist::samples          47868332                       # Number of instructions fetched each cycle (Total)
system.cpu1.fetch.rateDist::mean             0.190477                       # Number of instructions fetched each cycle (Total)
system.cpu1.fetch.rateDist::stdev            0.633707                       # Number of instructions fetched each cycle (Total)
system.cpu1.fetch.rateDist::underflows              0      0.00%      0.00% # Number of instructions fetched each cycle (Total)
system.cpu1.fetch.rateDist::0                42740016     89.29%     89.29% # Number of instructions fetched each cycle (Total)
system.cpu1.fetch.rateDist::1                 2555286      5.34%     94.62% # Number of instructions fetched each cycle (Total)
system.cpu1.fetch.rateDist::2                 1670066      3.49%     98.11% # Number of instructions fetched each cycle (Total)
system.cpu1.fetch.rateDist::3                  390396      0.82%     98.93% # Number of instructions fetched each cycle (Total)
system.cpu1.fetch.rateDist::4                  511944      1.07%    100.00% # Number of instructions fetched each cycle (Total)
system.cpu1.fetch.rateDist::5                     501      0.00%    100.00% # Number of instructions fetched each cycle (Total)
system.cpu1.fetch.rateDist::6                      19      0.00%    100.00% # Number of instructions fetched each cycle (Total)
system.cpu1.fetch.rateDist::7                      11      0.00%    100.00% # Number of instructions fetched each cycle (Total)
system.cpu1.fetch.rateDist::8                      93      0.00%    100.00% # Number of instructions fetched each cycle (Total)
system.cpu1.fetch.rateDist::overflows               0      0.00%    100.00% # Number of instructions fetched each cycle (Total)
system.cpu1.fetch.rateDist::min_value               0                       # Number of instructions fetched each cycle (Total)
system.cpu1.fetch.rateDist::max_value               8                       # Number of instructions fetched each cycle (Total)
system.cpu1.fetch.rateDist::total            47868332                       # Number of instructions fetched each cycle (Total)
system.cpu1.fp_regfile_reads                       12                       # number of floating regfile reads
system.cpu1.idleCycles                          65795                       # Total number of cycles that the CPU has spent unscheduled due to idling
system.cpu1.iew.branchMispredicts               13335                       # Number of branch mispredicts detected at execute
system.cpu1.iew.exec_branches                 1754306                       # Number of branches executed
system.cpu1.iew.exec_nop                            0                       # number of nop insts executed
system.cpu1.iew.exec_rate                    0.185591                       # Inst execution rate
system.cpu1.iew.exec_refs                     3714381                       # number of memory reference insts executed
system.cpu1.iew.exec_stores                    811853                       # Number of stores executed
system.cpu1.iew.exec_swp                            0                       # number of swp insts executed
system.cpu1.iew.iewBlockCycles               34439172                       # Number of cycles IEW is blocking
system.cpu1.iew.iewDispLoadInsts              2889904                       # Number of dispatched load instructions
system.cpu1.iew.iewDispNonSpecInsts            382459                       # Number of dispatched non-speculative instructions
system.cpu1.iew.iewDispSquashedInsts              462                       # Number of squashed instructions skipped by dispatch
system.cpu1.iew.iewDispStoreInsts              812075                       # Number of dispatched store instructions
system.cpu1.iew.iewDispatchedInsts            8972056                       # Number of instructions dispatched to IQ
system.cpu1.iew.iewExecLoadInsts              2902528                       # Number of load instructions executed
system.cpu1.iew.iewExecSquashedInsts             9439                       # Number of squashed instructions skipped in execute
system.cpu1.iew.iewExecutedInsts              8896149                       # Number of executed instructions
system.cpu1.iew.iewIQFullEvents                263532                       # Number of times the IQ has become full, causing a stall
system.cpu1.iew.iewIdleCycles                       0                       # Number of cycles IEW is idle
system.cpu1.iew.iewLSQFullEvents                91797                       # Number of times the LSQ has become full, causing a stall
system.cpu1.iew.iewSquashCycles                  6818                       # Number of cycles IEW is squashing
system.cpu1.iew.iewUnblockCycles               864601                       # Number of cycles IEW is unblocking
system.cpu1.iew.lsq.thread0.blockedLoads            0                       # Number of blocked loads due to partial load-store forwarding
system.cpu1.iew.lsq.thread0.cacheBlocked         5993                       # Number of times an access to memory failed due to the cache being blocked
system.cpu1.iew.lsq.thread0.forwLoads              49                       # Number of loads that had data forwarded from stores
system.cpu1.iew.lsq.thread0.ignoredResponses            6                       # Number of memory responses ignored because the instruction is squashed
system.cpu1.iew.lsq.thread0.invAddrLoads            0                       # Number of loads ignored due to an invalid address
system.cpu1.iew.lsq.thread0.invAddrSwpfs            0                       # Number of software prefetches ignored due to an invalid address
system.cpu1.iew.lsq.thread0.memOrderViolation            2                       # Number of memory ordering violations
system.cpu1.iew.lsq.thread0.rescheduledLoads            0                       # Number of loads that were rescheduled
system.cpu1.iew.lsq.thread0.squashedLoads        61104                       # Number of loads squashed
system.cpu1.iew.lsq.thread0.squashedStores          342                       # Number of stores squashed
system.cpu1.iew.memOrderViolationEvents             2                       # Number of memory order violations
system.cpu1.iew.predictedNotTakenIncorrect         6960                       # Number of branches that were predicted not taken incorrectly
system.cpu1.iew.predictedTakenIncorrect          6375                       # Number of branches that were predicted taken incorrectly
system.cpu1.iew.wb_consumers                  5415415                       # num instructions consuming a value
system.cpu1.iew.wb_count                      8857136                       # cumulative count of insts written-back
system.cpu1.iew.wb_fanout                    0.839084                       # average fanout of values written-back
system.cpu1.iew.wb_producers                  4543987                       # num instructions producing a value
system.cpu1.iew.wb_rate                      0.184777                       # insts written-back per cycle
system.cpu1.iew.wb_sent                       8857356                       # cumulative count of insts sent to commit
system.cpu1.int_regfile_reads                10713017                       # number of integer regfile reads
system.cpu1.int_regfile_writes                5910636                       # number of integer regfile writes
system.cpu1.ipc                              0.172235                       # IPC: Instructions Per Cycle
system.cpu1.ipc_total                        0.172235                       # IPC: Total IPC of All Threads
system.cpu1.iq.FU_type_0::No_OpClass           763944      8.58%      8.58% # Type of FU issued
system.cpu1.iq.FU_type_0::IntAlu              4422948     49.66%     58.24% # Type of FU issued
system.cpu1.iq.FU_type_0::IntMult                  34      0.00%     58.24% # Type of FU issued
system.cpu1.iq.FU_type_0::IntDiv                   58      0.00%     58.24% # Type of FU issued
system.cpu1.iq.FU_type_0::FloatAdd                  0      0.00%     58.24% # Type of FU issued
system.cpu1.iq.FU_type_0::FloatCmp                  0      0.00%     58.24% # Type of FU issued
system.cpu1.iq.FU_type_0::FloatCvt                  0      0.00%     58.24% # Type of FU issued
system.cpu1.iq.FU_type_0::FloatMult                 0      0.00%     58.24% # Type of FU issued
system.cpu1.iq.FU_type_0::FloatMultAcc              0      0.00%     58.24% # Type of FU issued
system.cpu1.iq.FU_type_0::FloatDiv                  0      0.00%     58.24% # Type of FU issued
system.cpu1.iq.FU_type_0::FloatMisc                 0      0.00%     58.24% # Type of FU issued
system.cpu1.iq.FU_type_0::FloatSqrt                 0      0.00%     58.24% # Type of FU issued
system.cpu1.iq.FU_type_0::SimdAdd                   0      0.00%     58.24% # Type of FU issued
system.cpu1.iq.FU_type_0::SimdAddAcc                0      0.00%     58.24% # Type of FU issued
system.cpu1.iq.FU_type_0::SimdAlu                   0      0.00%     58.24% # Type of FU issued
system.cpu1.iq.FU_type_0::SimdCmp                   0      0.00%     58.24% # Type of FU issued
system.cpu1.iq.FU_type_0::SimdCvt                   0      0.00%     58.24% # Type of FU issued
system.cpu1.iq.FU_type_0::SimdMisc                  0      0.00%     58.24% # Type of FU issued
system.cpu1.iq.FU_type_0::SimdMult                  0      0.00%     58.24% # Type of FU issued
system.cpu1.iq.FU_type_0::SimdMultAcc               0      0.00%     58.24% # Type of FU issued
system.cpu1.iq.FU_type_0::SimdShift                 0      0.00%     58.24% # Type of FU issued
system.cpu1.iq.FU_type_0::SimdShiftAcc              0      0.00%     58.24% # Type of FU issued
system.cpu1.iq.FU_type_0::SimdDiv                   0      0.00%     58.24% # Type of FU issued
system.cpu1.iq.FU_type_0::SimdSqrt                  0      0.00%     58.24% # Type of FU issued
system.cpu1.iq.FU_type_0::SimdFloatAdd              0      0.00%     58.24% # Type of FU issued
system.cpu1.iq.FU_type_0::SimdFloatAlu              0      0.00%     58.24% # Type of FU issued
system.cpu1.iq.FU_type_0::SimdFloatCmp              0      0.00%     58.24% # Type of FU issued
system.cpu1.iq.FU_type_0::SimdFloatCvt              0      0.00%     58.24% # Type of FU issued
system.cpu1.iq.FU_type_0::SimdFloatDiv              0      0.00%     58.24% # Type of FU issued
system.cpu1.iq.FU_type_0::SimdFloatMisc             0      0.00%     58.24% # Type of FU issued
system.cpu1.iq.FU_type_0::SimdFloatMult             0      0.00%     58.24% # Type of FU issued
system.cpu1.iq.FU_type_0::SimdFloatMultAcc            0      0.00%     58.24% # Type of FU issued
system.cpu1.iq.FU_type_0::SimdFloatSqrt             0      0.00%     58.24% # Type of FU issued
system.cpu1.iq.FU_type_0::SimdReduceAdd             0      0.00%     58.24% # Type of FU issued
system.cpu1.iq.FU_type_0::SimdReduceAlu             0      0.00%     58.24% # Type of FU issued
system.cpu1.iq.FU_type_0::SimdReduceCmp             0      0.00%     58.24% # Type of FU issued
system.cpu1.iq.FU_type_0::SimdFloatReduceAdd            0      0.00%     58.24% # Type of FU issued
system.cpu1.iq.FU_type_0::SimdFloatReduceCmp            0      0.00%     58.24% # Type of FU issued
system.cpu1.iq.FU_type_0::SimdAes                   0      0.00%     58.24% # Type of FU issued
system.cpu1.iq.FU_type_0::SimdAesMix                0      0.00%     58.24% # Type of FU issued
system.cpu1.iq.FU_type_0::SimdSha1Hash              0      0.00%     58.24% # Type of FU issued
system.cpu1.iq.FU_type_0::SimdSha1Hash2             0      0.00%     58.24% # Type of FU issued
system.cpu1.iq.FU_type_0::SimdSha256Hash            0      0.00%     58.24% # Type of FU issued
system.cpu1.iq.FU_type_0::SimdSha256Hash2            0      0.00%     58.24% # Type of FU issued
system.cpu1.iq.FU_type_0::SimdShaSigma2             0      0.00%     58.24% # Type of FU issued
system.cpu1.iq.FU_type_0::SimdShaSigma3             0      0.00%     58.24% # Type of FU issued
system.cpu1.iq.FU_type_0::SimdPredAlu               0      0.00%     58.24% # Type of FU issued
system.cpu1.iq.FU_type_0::MemRead             3288589     36.93%     95.17% # Type of FU issued
system.cpu1.iq.FU_type_0::MemWrite             430003      4.83%    100.00% # Type of FU issued
system.cpu1.iq.FU_type_0::FloatMemRead              0      0.00%    100.00% # Type of FU issued
system.cpu1.iq.FU_type_0::FloatMemWrite            12      0.00%    100.00% # Type of FU issued
system.cpu1.iq.FU_type_0::IprAccess                 0      0.00%    100.00% # Type of FU issued
system.cpu1.iq.FU_type_0::InstPrefetch              0      0.00%    100.00% # Type of FU issued
system.cpu1.iq.FU_type_0::total               8905588                       # Type of FU issued
system.cpu1.iq.fp_alu_accesses                     14                       # Number of floating point alu accesses
system.cpu1.iq.fp_inst_queue_reads                 26                       # Number of floating instruction queue reads
system.cpu1.iq.fp_inst_queue_wakeup_accesses           12                       # Number of floating instruction queue wakeup accesses
system.cpu1.iq.fp_inst_queue_writes                12                       # Number of floating instruction queue writes
system.cpu1.iq.fu_busy_cnt                     393149                       # FU busy when requested
system.cpu1.iq.fu_busy_rate                  0.044146                       # FU busy rate (busy events/executed inst)
system.cpu1.iq.fu_full::No_OpClass                  0      0.00%      0.00% # attempts to use FU when none available
system.cpu1.iq.fu_full::IntAlu                  85514     21.75%     21.75% # attempts to use FU when none available
system.cpu1.iq.fu_full::IntMult                     0      0.00%     21.75% # attempts to use FU when none available
system.cpu1.iq.fu_full::IntDiv                      0      0.00%     21.75% # attempts to use FU when none available
system.cpu1.iq.fu_full::FloatAdd                    0      0.00%     21.75% # attempts to use FU when none available
system.cpu1.iq.fu_full::FloatCmp                    0      0.00%     21.75% # attempts to use FU when none available
system.cpu1.iq.fu_full::FloatCvt                    0      0.00%     21.75% # attempts to use FU when none available
system.cpu1.iq.fu_full::FloatMult                   0      0.00%     21.75% # attempts to use FU when none available
system.cpu1.iq.fu_full::FloatMultAcc                0      0.00%     21.75% # attempts to use FU when none available
system.cpu1.iq.fu_full::FloatDiv                    0      0.00%     21.75% # attempts to use FU when none available
system.cpu1.iq.fu_full::FloatMisc                   0      0.00%     21.75% # attempts to use FU when none available
system.cpu1.iq.fu_full::FloatSqrt                   0      0.00%     21.75% # attempts to use FU when none available
system.cpu1.iq.fu_full::SimdAdd                     0      0.00%     21.75% # attempts to use FU when none available
system.cpu1.iq.fu_full::SimdAddAcc                  0      0.00%     21.75% # attempts to use FU when none available
system.cpu1.iq.fu_full::SimdAlu                     0      0.00%     21.75% # attempts to use FU when none available
system.cpu1.iq.fu_full::SimdCmp                     0      0.00%     21.75% # attempts to use FU when none available
system.cpu1.iq.fu_full::SimdCvt                     0      0.00%     21.75% # attempts to use FU when none available
system.cpu1.iq.fu_full::SimdMisc                    0      0.00%     21.75% # attempts to use FU when none available
system.cpu1.iq.fu_full::SimdMult                    0      0.00%     21.75% # attempts to use FU when none available
system.cpu1.iq.fu_full::SimdMultAcc                 0      0.00%     21.75% # attempts to use FU when none available
system.cpu1.iq.fu_full::SimdShift                   0      0.00%     21.75% # attempts to use FU when none available
system.cpu1.iq.fu_full::SimdShiftAcc                0      0.00%     21.75% # attempts to use FU when none available
system.cpu1.iq.fu_full::SimdDiv                     0      0.00%     21.75% # attempts to use FU when none available
system.cpu1.iq.fu_full::SimdSqrt                    0      0.00%     21.75% # attempts to use FU when none available
system.cpu1.iq.fu_full::SimdFloatAdd                0      0.00%     21.75% # attempts to use FU when none available
system.cpu1.iq.fu_full::SimdFloatAlu                0      0.00%     21.75% # attempts to use FU when none available
system.cpu1.iq.fu_full::SimdFloatCmp                0      0.00%     21.75% # attempts to use FU when none available
system.cpu1.iq.fu_full::SimdFloatCvt                0      0.00%     21.75% # attempts to use FU when none available
system.cpu1.iq.fu_full::SimdFloatDiv                0      0.00%     21.75% # attempts to use FU when none available
system.cpu1.iq.fu_full::SimdFloatMisc               0      0.00%     21.75% # attempts to use FU when none available
system.cpu1.iq.fu_full::SimdFloatMult               0      0.00%     21.75% # attempts to use FU when none available
system.cpu1.iq.fu_full::SimdFloatMultAcc            0      0.00%     21.75% # attempts to use FU when none available
system.cpu1.iq.fu_full::SimdFloatSqrt               0      0.00%     21.75% # attempts to use FU when none available
system.cpu1.iq.fu_full::SimdReduceAdd               0      0.00%     21.75% # attempts to use FU when none available
system.cpu1.iq.fu_full::SimdReduceAlu               0      0.00%     21.75% # attempts to use FU when none available
system.cpu1.iq.fu_full::SimdReduceCmp               0      0.00%     21.75% # attempts to use FU when none available
system.cpu1.iq.fu_full::SimdFloatReduceAdd            0      0.00%     21.75% # attempts to use FU when none available
system.cpu1.iq.fu_full::SimdFloatReduceCmp            0      0.00%     21.75% # attempts to use FU when none available
system.cpu1.iq.fu_full::SimdAes                     0      0.00%     21.75% # attempts to use FU when none available
system.cpu1.iq.fu_full::SimdAesMix                  0      0.00%     21.75% # attempts to use FU when none available
system.cpu1.iq.fu_full::SimdSha1Hash                0      0.00%     21.75% # attempts to use FU when none available
system.cpu1.iq.fu_full::SimdSha1Hash2               0      0.00%     21.75% # attempts to use FU when none available
system.cpu1.iq.fu_full::SimdSha256Hash              0      0.00%     21.75% # attempts to use FU when none available
system.cpu1.iq.fu_full::SimdSha256Hash2             0      0.00%     21.75% # attempts to use FU when none available
system.cpu1.iq.fu_full::SimdShaSigma2               0      0.00%     21.75% # attempts to use FU when none available
system.cpu1.iq.fu_full::SimdShaSigma3               0      0.00%     21.75% # attempts to use FU when none available
system.cpu1.iq.fu_full::SimdPredAlu                 0      0.00%     21.75% # attempts to use FU when none available
system.cpu1.iq.fu_full::MemRead                266851     67.88%     89.63% # attempts to use FU when none available
system.cpu1.iq.fu_full::MemWrite                40782     10.37%    100.00% # attempts to use FU when none available
system.cpu1.iq.fu_full::FloatMemRead                0      0.00%    100.00% # attempts to use FU when none available
[...]
system.cpu1.dcache.WriteReq_mshr_miss_latency::.cpu1.data   6130580498                       # number of WriteReq MSHR miss cycles
system.cpu1.dcache.WriteReq_mshr_miss_latency::total   6130580498                       # number of WriteReq MSHR miss cycles
system.cpu1.dcache.WriteReq_mshr_miss_rate::.cpu1.data     0.075560                       # mshr miss rate for WriteReq accesses
system.cpu1.dcache.WriteReq_mshr_miss_rate::total     0.075560                       # mshr miss rate for WriteReq accesses
system.cpu1.dcache.WriteReq_avg_mshr_miss_latency::.cpu1.data 188871.514772                       # average WriteReq mshr miss latency
system.cpu1.dcache.WriteReq_avg_mshr_miss_latency::total 188871.514772                       # average WriteReq mshr miss latency
system.cpu1.dcache.LoadLockedReq_hits::.cpu1.data          206                       # number of LoadLockedReq hits
system.cpu1.dcache.LoadLockedReq_hits::total          206                       # number of LoadLockedReq hits
system.cpu1.dcache.LoadLockedReq_misses::.cpu1.data          160                       # number of LoadLockedReq misses
system.cpu1.dcache.LoadLockedReq_misses::total          160                       # number of LoadLockedReq misses
system.cpu1.dcache.LoadLockedReq_miss_latency::.cpu1.data      3712000                       # number of LoadLockedReq miss cycles
system.cpu1.dcache.LoadLockedReq_miss_latency::total      3712000                       # number of LoadLockedReq miss cycles
system.cpu1.dcache.LoadLockedReq_accesses::.cpu1.data          366                       # number of LoadLockedReq accesses(hits+misses)
system.cpu1.dcache.LoadLockedReq_accesses::total          366                       # number of LoadLockedReq accesses(hits+misses)
system.cpu1.dcache.LoadLockedReq_miss_rate::.cpu1.data     0.437158                       # miss rate for LoadLockedReq accesses
system.cpu1.dcache.LoadLockedReq_miss_rate::total     0.437158                       # miss rate for LoadLockedReq accesses
system.cpu1.dcache.LoadLockedReq_avg_miss_latency::.cpu1.data        23200                       # average LoadLockedReq miss latency
system.cpu1.dcache.LoadLockedReq_avg_miss_latency::total        23200                       # average LoadLockedReq miss latency
system.cpu1.dcache.LoadLockedReq_mshr_hits::.cpu1.data          104                       # number of LoadLockedReq MSHR hits
system.cpu1.dcache.LoadLockedReq_mshr_hits::total          104                       # number of LoadLockedReq MSHR hits
system.cpu1.dcache.LoadLockedReq_mshr_misses::.cpu1.data           56                       # number of LoadLockedReq MSHR misses
system.cpu1.dcache.LoadLockedReq_mshr_misses::total           56                       # number of LoadLockedReq MSHR misses
system.cpu1.dcache.LoadLockedReq_mshr_miss_latency::.cpu1.data       343500                       # number of LoadLockedReq MSHR miss cycles
system.cpu1.dcache.LoadLockedReq_mshr_miss_latency::total       343500                       # number of LoadLockedReq MSHR miss cycles
system.cpu1.dcache.LoadLockedReq_mshr_miss_rate::.cpu1.data     0.153005                       # mshr miss rate for LoadLockedReq accesses
system.cpu1.dcache.LoadLockedReq_mshr_miss_rate::total     0.153005                       # mshr miss rate for LoadLockedReq accesses
system.cpu1.dcache.LoadLockedReq_avg_mshr_miss_latency::.cpu1.data  6133.928571                       # average LoadLockedReq mshr miss latency
system.cpu1.dcache.LoadLockedReq_avg_mshr_miss_latency::total  6133.928571                       # average LoadLockedReq mshr miss latency
system.cpu1.dcache.StoreCondReq_hits::.cpu1.data          138                       # number of StoreCondReq hits
system.cpu1.dcache.StoreCondReq_hits::total          138                       # number of StoreCondReq hits
system.cpu1.dcache.StoreCondReq_misses::.cpu1.data           88                       # number of StoreCondReq misses
system.cpu1.dcache.StoreCondReq_misses::total           88                       # number of StoreCondReq misses
system.cpu1.dcache.StoreCondReq_miss_latency::.cpu1.data       423500                       # number of StoreCondReq miss cycles
system.cpu1.dcache.StoreCondReq_miss_latency::total       423500                       # number of StoreCondReq miss cycles
system.cpu1.dcache.StoreCondReq_accesses::.cpu1.data          226                       # number of StoreCondReq accesses(hits+misses)
system.cpu1.dcache.StoreCondReq_accesses::total          226                       # number of StoreCondReq accesses(hits+misses)
system.cpu1.dcache.StoreCondReq_miss_rate::.cpu1.data     0.389381                       # miss rate for StoreCondReq accesses
system.cpu1.dcache.StoreCondReq_miss_rate::total     0.389381                       # miss rate for StoreCondReq accesses
system.cpu1.dcache.StoreCondReq_avg_miss_latency::.cpu1.data  4812.500000                       # average StoreCondReq miss latency
system.cpu1.dcache.StoreCondReq_avg_miss_latency::total  4812.500000                       # average StoreCondReq miss latency
system.cpu1.dcache.StoreCondReq_mshr_misses::.cpu1.data           87                       # number of StoreCondReq MSHR misses
system.cpu1.dcache.StoreCondReq_mshr_misses::total           87                       # number of StoreCondReq MSHR misses
system.cpu1.dcache.StoreCondReq_mshr_miss_latency::.cpu1.data       344500                       # number of StoreCondReq MSHR miss cycles
system.cpu1.dcache.StoreCondReq_mshr_miss_latency::total       344500                       # number of StoreCondReq MSHR miss cycles
system.cpu1.dcache.StoreCondReq_mshr_miss_rate::.cpu1.data     0.384956                       # mshr miss rate for StoreCondReq accesses
system.cpu1.dcache.StoreCondReq_mshr_miss_rate::total     0.384956                       # mshr miss rate for StoreCondReq accesses
system.cpu1.dcache.StoreCondReq_avg_mshr_miss_latency::.cpu1.data  3959.770115                       # average StoreCondReq mshr miss latency
system.cpu1.dcache.StoreCondReq_avg_mshr_miss_latency::total  3959.770115                       # average StoreCondReq mshr miss latency
system.cpu1.dcache.StoreCondFailReq_miss_latency::.cpu1.data       123000                       # number of StoreCondFailReq miss cycles
system.cpu1.dcache.StoreCondFailReq_miss_latency::total       123000                       # number of StoreCondFailReq miss cycles
system.cpu1.dcache.StoreCondFailReq_avg_miss_latency::.cpu1.data          inf                       # average StoreCondFailReq miss latency
system.cpu1.dcache.StoreCondFailReq_avg_miss_latency::total          inf                       # average StoreCondFailReq miss latency
system.cpu1.dcache.StoreCondFailReq_mshr_miss_latency::.cpu1.data       115000                       # number of StoreCondFailReq MSHR miss cycles
system.cpu1.dcache.StoreCondFailReq_mshr_miss_latency::total       115000                       # number of StoreCondFailReq MSHR miss cycles
system.cpu1.dcache.StoreCondFailReq_avg_mshr_miss_latency::.cpu1.data          inf                       # average StoreCondFailReq mshr miss latency
system.cpu1.dcache.StoreCondFailReq_avg_mshr_miss_latency::total          inf                       # average StoreCondFailReq mshr miss latency
system.cpu1.dcache.SwapReq_hits::.cpu1.data       274022                       # number of SwapReq hits
system.cpu1.dcache.SwapReq_hits::total         274022                       # number of SwapReq hits
system.cpu1.dcache.SwapReq_misses::.cpu1.data       107852                       # number of SwapReq misses
system.cpu1.dcache.SwapReq_misses::total       107852                       # number of SwapReq misses
system.cpu1.dcache.SwapReq_miss_latency::.cpu1.data   8437291500                       # number of SwapReq miss cycles
system.cpu1.dcache.SwapReq_miss_latency::total   8437291500                       # number of SwapReq miss cycles
system.cpu1.dcache.SwapReq_accesses::.cpu1.data       381874                       # number of SwapReq accesses(hits+misses)
system.cpu1.dcache.SwapReq_accesses::total       381874                       # number of SwapReq accesses(hits+misses)
system.cpu1.dcache.SwapReq_miss_rate::.cpu1.data     0.282428                       # miss rate for SwapReq accesses
system.cpu1.dcache.SwapReq_miss_rate::total     0.282428                       # miss rate for SwapReq accesses
system.cpu1.dcache.SwapReq_avg_miss_latency::.cpu1.data 78230.273894                       # average SwapReq miss latency
system.cpu1.dcache.SwapReq_avg_miss_latency::total 78230.273894                       # average SwapReq miss latency
system.cpu1.dcache.SwapReq_mshr_misses::.cpu1.data       107852                       # number of SwapReq MSHR misses
system.cpu1.dcache.SwapReq_mshr_misses::total       107852                       # number of SwapReq MSHR misses
system.cpu1.dcache.SwapReq_mshr_miss_latency::.cpu1.data   8329439500                       # number of SwapReq MSHR miss cycles
system.cpu1.dcache.SwapReq_mshr_miss_latency::total   8329439500                       # number of SwapReq MSHR miss cycles
system.cpu1.dcache.SwapReq_mshr_miss_rate::.cpu1.data     0.282428                       # mshr miss rate for SwapReq accesses
system.cpu1.dcache.SwapReq_mshr_miss_rate::total     0.282428                       # mshr miss rate for SwapReq accesses
system.cpu1.dcache.SwapReq_avg_mshr_miss_latency::.cpu1.data 77230.273894                       # average SwapReq mshr miss latency
system.cpu1.dcache.SwapReq_avg_mshr_miss_latency::total 77230.273894                       # average SwapReq mshr miss latency
system.cpu1.dcache.tags.pwrStateResidencyTicks::UNDEFINED 8662249725966250                       # Cumulative time (in ticks) in various power states
system.cpu1.dcache.tags.tagsinuse           18.000577                       # Cycle average of tags in use
system.cpu1.dcache.tags.total_refs            2918556                       # Total number of references to valid blocks.
system.cpu1.dcache.tags.sampled_refs           230313                       # Sample count of references to valid blocks.
system.cpu1.dcache.tags.avg_refs            12.672129                       # Average number of references to valid blocks.
system.cpu1.dcache.tags.warmup_cycle        346491500                       # Cycle when the warmup percentage was hit.
system.cpu1.dcache.tags.occ_blocks::.cpu1.data    18.000577                       # Average occupied blocks per requestor
system.cpu1.dcache.tags.occ_percent::.cpu1.data     0.562518                       # Average percentage of cache occupancy
system.cpu1.dcache.tags.occ_percent::total     0.562518                       # Average percentage of cache occupancy
system.cpu1.dcache.tags.occ_task_id_blocks::1024           18                       # Occupied blocks per task id
system.cpu1.dcache.tags.age_task_id_blocks_1024::4           18                       # Occupied blocks per task id
system.cpu1.dcache.tags.occ_task_id_percent::1024     0.562500                       # Percentage of cache occupancy per task id
system.cpu1.dcache.tags.tag_accesses          7619063                       # Number of tag accesses
system.cpu1.dcache.tags.data_accesses         7619063                       # Number of data accesses
system.cpu_clk_domain.clock                       500                       # Clock period in ticks
system.tol2bus.pwrStateResidencyTicks::UNDEFINED 8662249725966250                       # Cumulative time (in ticks) in various power states
system.tol2bus.trans_dist::ReadResp          30016064                       # Transaction distribution
system.tol2bus.trans_dist::ReadRespWithInvalidate            2                       # Transaction distribution
system.tol2bus.trans_dist::WritebackDirty      3772844                       # Transaction distribution
system.tol2bus.trans_dist::WritebackClean     29853069                       # Transaction distribution
system.tol2bus.trans_dist::CleanEvict         1860261                       # Transaction distribution
system.tol2bus.trans_dist::UpgradeReq             759                       # Transaction distribution
system.tol2bus.trans_dist::SCUpgradeReq           460                       # Transaction distribution
system.tol2bus.trans_dist::UpgradeResp           1219                       # Transaction distribution
system.tol2bus.trans_dist::SCUpgradeFailReq           27                       # Transaction distribution
system.tol2bus.trans_dist::UpgradeFailResp           27                       # Transaction distribution
system.tol2bus.trans_dist::ReadExReq          3048850                       # Transaction distribution
system.tol2bus.trans_dist::ReadExResp         3048850                       # Transaction distribution
system.tol2bus.trans_dist::ReadCleanReq      16740864                       # Transaction distribution
system.tol2bus.trans_dist::ReadSharedReq     13275202                       # Transaction distribution
system.tol2bus.trans_dist::InvalidateReq           17                       # Transaction distribution
system.tol2bus.trans_dist::InvalidateResp           17                       # Transaction distribution
system.tol2bus.pkt_count_system.cpu0.icache.mem_side::system.l2.cpu_side     50212688                       # Packet count per connected master and slave (bytes)
system.tol2bus.pkt_count_system.cpu0.dcache.mem_side::system.l2.cpu_side     46779223                       # Packet count per connected master and slave (bytes)
system.tol2bus.pkt_count_system.cpu1.icache.mem_side::system.l2.cpu_side         3310                       # Packet count per connected master and slave (bytes)
system.tol2bus.pkt_count_system.cpu1.dcache.mem_side::system.l2.cpu_side       663363                       # Packet count per connected master and slave (bytes)
system.tol2bus.pkt_count_system.cpu2.icache.mem_side::system.l2.cpu_side         3184                       # Packet count per connected master and slave (bytes)
system.tol2bus.pkt_count_system.cpu2.dcache.mem_side::system.l2.cpu_side       699428                       # Packet count per connected master and slave (bytes)
system.tol2bus.pkt_count_system.cpu3.icache.mem_side::system.l2.cpu_side         3280                       # Packet count per connected master and slave (bytes)
system.tol2bus.pkt_count_system.cpu3.dcache.mem_side::system.l2.cpu_side       735260                       # Packet count per connected master and slave (bytes)
system.tol2bus.pkt_count::total              99099736                       # Packet count per connected master and slave (bytes)
system.tol2bus.pkt_size_system.cpu0.icache.mem_side::system.l2.cpu_side   2142407296                       # Cumulative packet size per connected master and slave (bytes)
system.tol2bus.pkt_size_system.cpu0.dcache.mem_side::system.l2.cpu_side   1995305024                       # Cumulative packet size per connected master and slave (bytes)
system.tol2bus.pkt_size_system.cpu1.icache.mem_side::system.l2.cpu_side       140544                       # Cumulative packet size per connected master and slave (bytes)
system.tol2bus.pkt_size_system.cpu1.dcache.mem_side::system.l2.cpu_side     27695104                       # Cumulative packet size per connected master and slave (bytes)
system.tol2bus.pkt_size_system.cpu2.icache.mem_side::system.l2.cpu_side       135168                       # Cumulative packet size per connected master and slave (bytes)
system.tol2bus.pkt_size_system.cpu2.dcache.mem_side::system.l2.cpu_side     29311040                       # Cumulative packet size per connected master and slave (bytes)
system.tol2bus.pkt_size_system.cpu3.icache.mem_side::system.l2.cpu_side       139264                       # Cumulative packet size per connected master and slave (bytes)
system.tol2bus.pkt_size_system.cpu3.dcache.mem_side::system.l2.cpu_side     30997440                       # Cumulative packet size per connected master and slave (bytes)
system.tol2bus.pkt_size::total             4226130880                       # Cumulative packet size per connected master and slave (bytes)
system.tol2bus.snoops                         2518796                       # Total snoops (count)
system.tol2bus.snoopTraffic                  42083904                       # Total snoop traffic (bytes)
system.tol2bus.snoop_fanout::samples         35535857                       # Request fanout histogram
system.tol2bus.snoop_fanout::mean            0.043081                       # Request fanout histogram
system.tol2bus.snoop_fanout::stdev           0.222532                       # Request fanout histogram
system.tol2bus.snoop_fanout::underflows             0      0.00%      0.00% # Request fanout histogram
system.tol2bus.snoop_fanout::0               34088842     95.93%     95.93% # Request fanout histogram
system.tol2bus.snoop_fanout::1                1410557      3.97%     99.90% # Request fanout histogram
system.tol2bus.snoop_fanout::2                   3404      0.01%     99.91% # Request fanout histogram
system.tol2bus.snoop_fanout::3                  20370      0.06%     99.96% # Request fanout histogram
system.tol2bus.snoop_fanout::4                  10989      0.03%    100.00% # Request fanout histogram
system.tol2bus.snoop_fanout::5                   1695      0.00%    100.00% # Request fanout histogram
system.tol2bus.snoop_fanout::6                      0      0.00%    100.00% # Request fanout histogram
system.tol2bus.snoop_fanout::7                      0      0.00%    100.00% # Request fanout histogram
system.tol2bus.snoop_fanout::8                      0      0.00%    100.00% # Request fanout histogram
system.tol2bus.snoop_fanout::overflows              0      0.00%    100.00% # Request fanout histogram
system.tol2bus.snoop_fanout::min_value              0                       # Request fanout histogram
system.tol2bus.snoop_fanout::max_value              5                       # Request fanout histogram
system.tol2bus.snoop_fanout::total           35535857                       # Request fanout histogram
system.tol2bus.reqLayer0.occupancy        66057848470                       # Layer occupancy (ticks)
system.tol2bus.reqLayer0.utilization              0.0                       # Layer utilization (%)
system.tol2bus.respLayer5.occupancy         361972671                       # Layer occupancy (ticks)
system.tol2bus.respLayer5.utilization             0.0                       # Layer utilization (%)
system.tol2bus.respLayer4.occupancy           1689789                       # Layer occupancy (ticks)
system.tol2bus.respLayer4.utilization             0.0                       # Layer utilization (%)
system.tol2bus.respLayer7.occupancy         376183646                       # Layer occupancy (ticks)
system.tol2bus.respLayer7.utilization             0.0                       # Layer utilization (%)
system.tol2bus.respLayer6.occupancy           1734777                       # Layer occupancy (ticks)
system.tol2bus.respLayer6.utilization             0.0                       # Layer utilization (%)
system.tol2bus.respLayer1.occupancy       23403655775                       # Layer occupancy (ticks)
system.tol2bus.respLayer1.utilization             0.0                       # Layer utilization (%)
system.tol2bus.respLayer0.occupancy       25129475678                       # Layer occupancy (ticks)
system.tol2bus.respLayer0.utilization             0.0                       # Layer utilization (%)
system.tol2bus.respLayer3.occupancy         345746203                       # Layer occupancy (ticks)
system.tol2bus.respLayer3.utilization             0.0                       # Layer utilization (%)
system.tol2bus.respLayer2.occupancy           1758790                       # Layer occupancy (ticks)
system.tol2bus.respLayer2.utilization             0.0                       # Layer utilization (%)

---------- End Simulation Statistics   ----------
