
---------- Begin Simulation Statistics ----------
final_tick                               1274675678000                       # Number of ticks from beginning of simulation (restored from checkpoints and never reset)
host_inst_rate                                  60663                       # Simulator instruction rate (inst/s)
host_mem_usage                                 702160                       # Number of bytes of host memory used
host_op_rate                                    60841                       # Simulator op (including micro ops) rate (op/s)
host_seconds                                 23681.62                       # Real time elapsed on the host
host_tick_rate                               53825526                       # Simulator tick rate (ticks/s)
sim_freq                                 1000000000000                       # Frequency of simulated ticks
sim_insts                                  1436603744                       # Number of instructions simulated
sim_ops                                    1440807504                       # Number of ops (including micro ops) simulated
sim_seconds                                  1.274676                       # Number of seconds simulated
sim_ticks                                1274675678000                       # Number of ticks simulated
system.cpu0.branchPred.BTBCorrect                   0                       # Number of correct BTB predictions (this stat may not work properly.
system.cpu0.branchPred.BTBHitPct            88.282117                       # BTB Hit Percentage
system.cpu0.branchPred.BTBHits              186005121                       # Number of BTB hits
system.cpu0.branchPred.BTBLookups           210693998                       # Number of BTB lookups
system.cpu0.branchPred.RASInCorrect                 0                       # Number of incorrect RAS predictions.
system.cpu0.branchPred.condIncorrect         19675216                       # Number of conditional branches incorrect
system.cpu0.branchPred.condPredicted        286257884                       # Number of conditional branches predicted
system.cpu0.branchPred.indirectHits          22221992                       # Number of indirect target hits.
system.cpu0.branchPred.indirectLookups       23585789                       # Number of indirect predictor lookups.
system.cpu0.branchPred.indirectMisses         1363797                       # Number of indirect misses.
system.cpu0.branchPred.lookups              360703582                       # Number of BP lookups
system.cpu0.branchPred.usedRAS                      0                       # Number of times the RAS was used to get a target.
system.cpu0.branchPredindirectMispredicted      2188396                       # Number of mispredicted indirect branches.
system.cpu0.commit.amos                       2100295                       # Number of atomic instructions committed
system.cpu0.commit.branchMispredicts         11887862                       # The number of times a branch was mispredicted
system.cpu0.commit.branches                 329545906                       # Number of branches committed
system.cpu0.commit.bw_lim_events             39984839                       # number cycles where commit BW limit reached
system.cpu0.commit.commitNonSpecStalls        6309774                       # The number of times commit has been forced to stall to communicate backwards
system.cpu0.commit.commitSquashedInsts      104296121                       # The number of squashed insts skipped by commit
system.cpu0.commit.committedInsts          1316551012                       # Number of instructions committed
system.cpu0.commit.committedOps            1318654588                       # Number of ops (including micro ops) committed
system.cpu0.commit.committed_per_cycle::samples   2362424551                       # Number of insts commited each cycle
system.cpu0.commit.committed_per_cycle::mean     0.558178                       # Number of insts commited each cycle
system.cpu0.commit.committed_per_cycle::stdev     1.333576                       # Number of insts commited each cycle
system.cpu0.commit.committed_per_cycle::underflows            0      0.00%      0.00% # Number of insts commited each cycle
system.cpu0.commit.committed_per_cycle::0   1728690143     73.17%     73.17% # Number of insts commited each cycle
system.cpu0.commit.committed_per_cycle::1    370661213     15.69%     88.86% # Number of insts commited each cycle
system.cpu0.commit.committed_per_cycle::2    106687494      4.52%     93.38% # Number of insts commited each cycle
system.cpu0.commit.committed_per_cycle::3     77065546      3.26%     96.64% # Number of insts commited each cycle
system.cpu0.commit.committed_per_cycle::4     22563539      0.96%     97.60% # Number of insts commited each cycle
system.cpu0.commit.committed_per_cycle::5      9025777      0.38%     97.98% # Number of insts commited each cycle
system.cpu0.commit.committed_per_cycle::6      6062004      0.26%     98.24% # Number of insts commited each cycle
system.cpu0.commit.committed_per_cycle::7      1683996      0.07%     98.31% # Number of insts commited each cycle
system.cpu0.commit.committed_per_cycle::8     39984839      1.69%    100.00% # Number of insts commited each cycle
system.cpu0.commit.committed_per_cycle::overflows            0      0.00%    100.00% # Number of insts commited each cycle
system.cpu0.commit.committed_per_cycle::min_value            0                       # Number of insts commited each cycle
system.cpu0.commit.committed_per_cycle::max_value            8                       # Number of insts commited each cycle
system.cpu0.commit.committed_per_cycle::total   2362424551                       # Number of insts commited each cycle
system.cpu0.commit.fp_insts                        46                       # Number of committed floating point instructions.
system.cpu0.commit.function_calls            25143434                       # Number of function calls committed.
system.cpu0.commit.int_insts               1273922724                       # Number of committed integer instructions.
system.cpu0.commit.loads                    405171254                       # Number of loads committed
system.cpu0.commit.membars                    4203739                       # Number of memory barriers committed
system.cpu0.commit.op_class_0::No_OpClass      4203745      0.32%      0.32% # Class of committed instruction
system.cpu0.commit.op_class_0::IntAlu       742063402     56.27%     56.59% # Class of committed instruction
system.cpu0.commit.op_class_0::IntMult       11831786      0.90%     57.49% # Class of committed instruction
system.cpu0.commit.op_class_0::IntDiv         2099835      0.16%     57.65% # Class of committed instruction
system.cpu0.commit.op_class_0::FloatAdd             0      0.00%     57.65% # Class of committed instruction
system.cpu0.commit.op_class_0::FloatCmp             4      0.00%     57.65% # Class of committed instruction
system.cpu0.commit.op_class_0::FloatCvt            12      0.00%     57.65% # Class of committed instruction
system.cpu0.commit.op_class_0::FloatMult            0      0.00%     57.65% # Class of committed instruction
system.cpu0.commit.op_class_0::FloatMultAcc            0      0.00%     57.65% # Class of committed instruction
system.cpu0.commit.op_class_0::FloatDiv             2      0.00%     57.65% # Class of committed instruction
system.cpu0.commit.op_class_0::FloatMisc            4      0.00%     57.65% # Class of committed instruction
system.cpu0.commit.op_class_0::FloatSqrt            0      0.00%     57.65% # Class of committed instruction
system.cpu0.commit.op_class_0::SimdAdd              0      0.00%     57.65% # Class of committed instruction
system.cpu0.commit.op_class_0::SimdAddAcc            0      0.00%     57.65% # Class of committed instruction
system.cpu0.commit.op_class_0::SimdAlu              0      0.00%     57.65% # Class of committed instruction
system.cpu0.commit.op_class_0::SimdCmp              0      0.00%     57.65% # Class of committed instruction
system.cpu0.commit.op_class_0::SimdCvt              0      0.00%     57.65% # Class of committed instruction
system.cpu0.commit.op_class_0::SimdMisc             0      0.00%     57.65% # Class of committed instruction
system.cpu0.commit.op_class_0::SimdMult             0      0.00%     57.65% # Class of committed instruction
system.cpu0.commit.op_class_0::SimdMultAcc            0      0.00%     57.65% # Class of committed instruction
system.cpu0.commit.op_class_0::SimdShift            0      0.00%     57.65% # Class of committed instruction
system.cpu0.commit.op_class_0::SimdShiftAcc            0      0.00%     57.65% # Class of committed instruction
system.cpu0.commit.op_class_0::SimdDiv              0      0.00%     57.65% # Class of committed instruction
system.cpu0.commit.op_class_0::SimdSqrt             0      0.00%     57.65% # Class of committed instruction
system.cpu0.commit.op_class_0::SimdFloatAdd            0      0.00%     57.65% # Class of committed instruction
system.cpu0.commit.op_class_0::SimdFloatAlu            0      0.00%     57.65% # Class of committed instruction
system.cpu0.commit.op_class_0::SimdFloatCmp            0      0.00%     57.65% # Class of committed instruction
system.cpu0.commit.op_class_0::SimdFloatCvt            0      0.00%     57.65% # Class of committed instruction
system.cpu0.commit.op_class_0::SimdFloatDiv            0      0.00%     57.65% # Class of committed instruction
system.cpu0.commit.op_class_0::SimdFloatMisc            0      0.00%     57.65% # Class of committed instruction
system.cpu0.commit.op_class_0::SimdFloatMult            0      0.00%     57.65% # Class of committed instruction
system.cpu0.commit.op_class_0::SimdFloatMultAcc            0      0.00%     57.65% # Class of committed instruction
system.cpu0.commit.op_class_0::SimdFloatSqrt            0      0.00%     57.65% # Class of committed instruction
system.cpu0.commit.op_class_0::SimdReduceAdd            0      0.00%     57.65% # Class of committed instruction
system.cpu0.commit.op_class_0::SimdReduceAlu            0      0.00%     57.65% # Class of committed instruction
system.cpu0.commit.op_class_0::SimdReduceCmp            0      0.00%     57.65% # Class of committed instruction
system.cpu0.commit.op_class_0::SimdFloatReduceAdd            0      0.00%     57.65% # Class of committed instruction
system.cpu0.commit.op_class_0::SimdFloatReduceCmp            0      0.00%     57.65% # Class of committed instruction
system.cpu0.commit.op_class_0::SimdAes              0      0.00%     57.65% # Class of committed instruction
system.cpu0.commit.op_class_0::SimdAesMix            0      0.00%     57.65% # Class of committed instruction
system.cpu0.commit.op_class_0::SimdSha1Hash            0      0.00%     57.65% # Class of committed instruction
system.cpu0.commit.op_class_0::SimdSha1Hash2            0      0.00%     57.65% # Class of committed instruction
system.cpu0.commit.op_class_0::SimdSha256Hash            0      0.00%     57.65% # Class of committed instruction
system.cpu0.commit.op_class_0::SimdSha256Hash2            0      0.00%     57.65% # Class of committed instruction
system.cpu0.commit.op_class_0::SimdShaSigma2            0      0.00%     57.65% # Class of committed instruction
system.cpu0.commit.op_class_0::SimdShaSigma3            0      0.00%     57.65% # Class of committed instruction
system.cpu0.commit.op_class_0::SimdPredAlu            0      0.00%     57.65% # Class of committed instruction
system.cpu0.commit.op_class_0::MemRead      407271541     30.89%     88.53% # Class of committed instruction
system.cpu0.commit.op_class_0::MemWrite     151184233     11.47%    100.00% # Class of committed instruction
system.cpu0.commit.op_class_0::FloatMemRead            8      0.00%    100.00% # Class of committed instruction
system.cpu0.commit.op_class_0::FloatMemWrite           16      0.00%    100.00% # Class of committed instruction
system.cpu0.commit.op_class_0::IprAccess            0      0.00%    100.00% # Class of committed instruction
system.cpu0.commit.op_class_0::InstPrefetch            0      0.00%    100.00% # Class of committed instruction
system.cpu0.commit.op_class_0::total       1318654588                       # Class of committed instruction
system.cpu0.commit.refs                     558455798                       # Number of memory references committed
system.cpu0.commit.swp_count                        0                       # Number of s/w prefetches committed
system.cpu0.commit.vec_insts                        0                       # Number of committed Vector instructions.
system.cpu0.committedInsts                 1316551012                       # Number of Instructions Simulated
system.cpu0.committedOps                   1318654588                       # Number of Ops (including micro ops) Simulated
system.cpu0.cpi                              1.929747                       # CPI: Cycles Per Instruction
system.cpu0.cpi_total                        1.929747                       # CPI: Total CPI of All Threads
system.cpu0.decode.BlockedCycles            465979088                       # Number of cycles decode is blocked
system.cpu0.decode.BranchMispred              7793076                       # Number of times decode detected a branch misprediction
system.cpu0.decode.BranchResolved           183395610                       # Number of times decode resolved a branch
system.cpu0.decode.DecodedInsts            1461925246                       # Number of instructions handled by decode
system.cpu0.decode.IdleCycles               909171412                       # Number of cycles decode is idle
system.cpu0.decode.RunCycles                990406483                       # Number of cycles decode is running
system.cpu0.decode.SquashCycles              11897343                       # Number of cycles decode is squashing
system.cpu0.decode.SquashedInsts             16534068                       # Number of squashed instructions handled by decode
system.cpu0.decode.UnblockCycles              6924182                       # Number of cycles decode is unblocking
system.cpu0.dtb.accesses                            0                       # DTB accesses
system.cpu0.dtb.hits                                0                       # DTB hits
system.cpu0.dtb.misses                              0                       # DTB misses
system.cpu0.dtb.read_accesses                       0                       # DTB read accesses
system.cpu0.dtb.read_hits                           0                       # DTB read hits
system.cpu0.dtb.read_misses                         0                       # DTB read misses
system.cpu0.dtb.write_accesses                      0                       # DTB write accesses
system.cpu0.dtb.write_hits                          0                       # DTB write hits
system.cpu0.dtb.write_misses                        0                       # DTB write misses
system.cpu0.fetch.Branches                  360703582                       # Number of branches that fetch encountered
system.cpu0.fetch.CacheLines                245251810                       # Number of cache lines fetched
system.cpu0.fetch.Cycles                   1459827699                       # Number of cycles fetch has run and was not squashing or blocked
system.cpu0.fetch.IcacheSquashes              4187950                       # Number of outstanding Icache misses that were squashed
system.cpu0.fetch.IcacheWaitRetryStallCycles           86                       # Number of stall cycles due to full MSHR
system.cpu0.fetch.Insts                    1505973004                       # Number of instructions fetch has processed
system.cpu0.fetch.MiscStallCycles                  18                       # Number of cycles fetch has spent waiting on interrupts, or bad addresses, or out of MSHRs
system.cpu0.fetch.SquashCycles               39369394                       # Number of cycles fetch has spent squashing
system.cpu0.fetch.branchRate                 0.141975                       # Number of branch fetches per cycle
system.cpu0.fetch.icacheStallCycles         904866008                       # Number of cycles fetch is stalled on an Icache miss
system.cpu0.fetch.predictedBranches         208227113                       # Number of branches that fetch has predicted taken
system.cpu0.fetch.rate                       0.592760                       # Number of inst fetches per cycle
system.cpu0.fetch.rateDist::samples        2384378508                       # Number of instructions fetched each cycle (Total)
system.cpu0.fetch.rateDist::mean             0.633987                       # Number of instructions fetched each cycle (Total)
system.cpu0.fetch.rateDist::stdev            0.922803                       # Number of instructions fetched each cycle (Total)
system.cpu0.fetch.rateDist::underflows              0      0.00%      0.00% # Number of instructions fetched each cycle (Total)
system.cpu0.fetch.rateDist::0              1333430080     55.92%     55.92% # Number of instructions fetched each cycle (Total)
system.cpu0.fetch.rateDist::1               772072799     32.38%     88.30% # Number of instructions fetched each cycle (Total)
system.cpu0.fetch.rateDist::2               148510661      6.23%     94.53% # Number of instructions fetched each cycle (Total)
system.cpu0.fetch.rateDist::3               103637364      4.35%     98.88% # Number of instructions fetched each cycle (Total)
system.cpu0.fetch.rateDist::4                13365305      0.56%     99.44% # Number of instructions fetched each cycle (Total)
system.cpu0.fetch.rateDist::5                 8282260      0.35%     99.79% # Number of instructions fetched each cycle (Total)
system.cpu0.fetch.rateDist::6                  875789      0.04%     99.82% # Number of instructions fetched each cycle (Total)
system.cpu0.fetch.rateDist::7                 2101334      0.09%     99.91% # Number of instructions fetched each cycle (Total)
system.cpu0.fetch.rateDist::8                 2102916      0.09%    100.00% # Number of instructions fetched each cycle (Total)
system.cpu0.fetch.rateDist::overflows               0      0.00%    100.00% # Number of instructions fetched each cycle (Total)
system.cpu0.fetch.rateDist::min_value               0                       # Number of instructions fetched each cycle (Total)
system.cpu0.fetch.rateDist::max_value               8                       # Number of instructions fetched each cycle (Total)
system.cpu0.fetch.rateDist::total          2384378508                       # Number of instructions fetched each cycle (Total)
system.cpu0.fp_regfile_reads                       40                       # number of floating regfile reads
system.cpu0.fp_regfile_writes                      22                       # number of floating regfile writes
system.cpu0.idleCycles                      156232342                       # Total number of cycles that the CPU has spent unscheduled due to idling
system.cpu0.iew.branchMispredicts            12000587                       # Number of branch mispredicts detected at execute
system.cpu0.iew.exec_branches               341794173                       # Number of branches executed
system.cpu0.iew.exec_nop                            0                       # number of nop insts executed
system.cpu0.iew.exec_rate                    0.544701                       # Inst execution rate
system.cpu0.iew.exec_refs                   594672568                       # number of memory reference insts executed
system.cpu0.iew.exec_stores                 158983686                       # Number of stores executed
system.cpu0.iew.exec_swp                            0                       # number of swp insts executed
system.cpu0.iew.iewBlockCycles              351435018                       # Number of cycles IEW is blocking
system.cpu0.iew.iewDispLoadInsts            446441117                       # Number of dispatched load instructions
system.cpu0.iew.iewDispNonSpecInsts           4168573                       # Number of dispatched non-speculative instructions
system.cpu0.iew.iewDispSquashedInsts          8539015                       # Number of squashed instructions skipped by dispatch
system.cpu0.iew.iewDispStoreInsts           163746753                       # Number of dispatched store instructions
system.cpu0.iew.iewDispatchedInsts         1422883590                       # Number of instructions dispatched to IQ
system.cpu0.iew.iewExecLoadInsts            435688882                       # Number of load instructions executed
system.cpu0.iew.iewExecSquashedInsts          4378057                       # Number of squashed instructions skipped in execute
system.cpu0.iew.iewExecutedInsts           1383872215                       # Number of executed instructions
system.cpu0.iew.iewIQFullEvents               2506268                       # Number of times the IQ has become full, causing a stall
system.cpu0.iew.iewIdleCycles                       0                       # Number of cycles IEW is idle
system.cpu0.iew.iewLSQFullEvents             12782577                       # Number of times the LSQ has become full, causing a stall
system.cpu0.iew.iewSquashCycles              11897343                       # Number of cycles IEW is squashing
system.cpu0.iew.iewUnblockCycles             17736416                       # Number of cycles IEW is unblocking
system.cpu0.iew.lsq.thread0.blockedLoads            0                       # Number of blocked loads due to partial load-store forwarding
system.cpu0.iew.lsq.thread0.cacheBlocked       288408                       # Number of times an access to memory failed due to the cache being blocked
system.cpu0.iew.lsq.thread0.forwLoads        26020665                       # Number of loads that had data forwarded from stores
system.cpu0.iew.lsq.thread0.ignoredResponses        55047                       # Number of memory responses ignored because the instruction is squashed
system.cpu0.iew.lsq.thread0.invAddrLoads            0                       # Number of loads ignored due to an invalid address
system.cpu0.iew.lsq.thread0.invAddrSwpfs            0                       # Number of software prefetches ignored due to an invalid address
system.cpu0.iew.lsq.thread0.memOrderViolation         8604                       # Number of memory ordering violations
system.cpu0.iew.lsq.thread0.rescheduledLoads      4706750                       # Number of loads that were rescheduled
system.cpu0.iew.lsq.thread0.squashedLoads     41269862                       # Number of loads squashed
system.cpu0.iew.lsq.thread0.squashedStores     10462209                       # Number of stores squashed
system.cpu0.iew.memOrderViolationEvents          8604                       # Number of memory order violations
system.cpu0.iew.predictedNotTakenIncorrect       748033                       # Number of branches that were predicted not taken incorrectly
system.cpu0.iew.predictedTakenIncorrect      11252554                       # Number of branches that were predicted taken incorrectly
system.cpu0.iew.wb_consumers                643671030                       # num instructions consuming a value
system.cpu0.iew.wb_count                   1372821717                       # cumulative count of insts written-back
system.cpu0.iew.wb_fanout                    0.828180                       # average fanout of values written-back
system.cpu0.iew.wb_producers                533075399                       # num instructions producing a value
system.cpu0.iew.wb_rate                      0.540351                       # insts written-back per cycle
system.cpu0.iew.wb_sent                    1372951427                       # cumulative count of insts sent to commit
system.cpu0.int_regfile_reads              1700472211                       # number of integer regfile reads
system.cpu0.int_regfile_writes              881916340                       # number of integer regfile writes
system.cpu0.ipc                              0.518203                       # IPC: Instructions Per Cycle
system.cpu0.ipc_total                        0.518203                       # IPC: Total IPC of All Threads
system.cpu0.iq.FU_type_0::No_OpClass          4205614      0.30%      0.30% # Type of FU issued
system.cpu0.iq.FU_type_0::IntAlu            773676041     55.73%     56.03% # Type of FU issued
system.cpu0.iq.FU_type_0::IntMult            11846966      0.85%     56.89% # Type of FU issued
system.cpu0.iq.FU_type_0::IntDiv              2100418      0.15%     57.04% # Type of FU issued
system.cpu0.iq.FU_type_0::FloatAdd                  0      0.00%     57.04% # Type of FU issued
system.cpu0.iq.FU_type_0::FloatCmp                  4      0.00%     57.04% # Type of FU issued
system.cpu0.iq.FU_type_0::FloatCvt                 12      0.00%     57.04% # Type of FU issued
system.cpu0.iq.FU_type_0::FloatMult                 0      0.00%     57.04% # Type of FU issued
system.cpu0.iq.FU_type_0::FloatMultAcc              0      0.00%     57.04% # Type of FU issued
system.cpu0.iq.FU_type_0::FloatDiv                  2      0.00%     57.04% # Type of FU issued
system.cpu0.iq.FU_type_0::FloatMisc                 4      0.00%     57.04% # Type of FU issued
system.cpu0.iq.FU_type_0::FloatSqrt                 0      0.00%     57.04% # Type of FU issued
system.cpu0.iq.FU_type_0::SimdAdd                   0      0.00%     57.04% # Type of FU issued
system.cpu0.iq.FU_type_0::SimdAddAcc                0      0.00%     57.04% # Type of FU issued
system.cpu0.iq.FU_type_0::SimdAlu                   0      0.00%     57.04% # Type of FU issued
system.cpu0.iq.FU_type_0::SimdCmp                   0      0.00%     57.04% # Type of FU issued
system.cpu0.iq.FU_type_0::SimdCvt                   0      0.00%     57.04% # Type of FU issued
system.cpu0.iq.FU_type_0::SimdMisc                  0      0.00%     57.04% # Type of FU issued
system.cpu0.iq.FU_type_0::SimdMult                  0      0.00%     57.04% # Type of FU issued
system.cpu0.iq.FU_type_0::SimdMultAcc               0      0.00%     57.04% # Type of FU issued
system.cpu0.iq.FU_type_0::SimdShift                 0      0.00%     57.04% # Type of FU issued
system.cpu0.iq.FU_type_0::SimdShiftAcc              0      0.00%     57.04% # Type of FU issued
system.cpu0.iq.FU_type_0::SimdDiv                   0      0.00%     57.04% # Type of FU issued
system.cpu0.iq.FU_type_0::SimdSqrt                  0      0.00%     57.04% # Type of FU issued
system.cpu0.iq.FU_type_0::SimdFloatAdd              0      0.00%     57.04% # Type of FU issued
system.cpu0.iq.FU_type_0::SimdFloatAlu              0      0.00%     57.04% # Type of FU issued
system.cpu0.iq.FU_type_0::SimdFloatCmp              0      0.00%     57.04% # Type of FU issued
system.cpu0.iq.FU_type_0::SimdFloatCvt              0      0.00%     57.04% # Type of FU issued
system.cpu0.iq.FU_type_0::SimdFloatDiv              0      0.00%     57.04% # Type of FU issued
system.cpu0.iq.FU_type_0::SimdFloatMisc             0      0.00%     57.04% # Type of FU issued
system.cpu0.iq.FU_type_0::SimdFloatMult             0      0.00%     57.04% # Type of FU issued
system.cpu0.iq.FU_type_0::SimdFloatMultAcc            0      0.00%     57.04% # Type of FU issued
system.cpu0.iq.FU_type_0::SimdFloatSqrt             0      0.00%     57.04% # Type of FU issued
system.cpu0.iq.FU_type_0::SimdReduceAdd             0      0.00%     57.04% # Type of FU issued
system.cpu0.iq.FU_type_0::SimdReduceAlu             0      0.00%     57.04% # Type of FU issued
system.cpu0.iq.FU_type_0::SimdReduceCmp             0      0.00%     57.04% # Type of FU issued
system.cpu0.iq.FU_type_0::SimdFloatReduceAdd            0      0.00%     57.04% # Type of FU issued
system.cpu0.iq.FU_type_0::SimdFloatReduceCmp            0      0.00%     57.04% # Type of FU issued
system.cpu0.iq.FU_type_0::SimdAes                   0      0.00%     57.04% # Type of FU issued
system.cpu0.iq.FU_type_0::SimdAesMix                0      0.00%     57.04% # Type of FU issued
system.cpu0.iq.FU_type_0::SimdSha1Hash              0      0.00%     57.04% # Type of FU issued
system.cpu0.iq.FU_type_0::SimdSha1Hash2             0      0.00%     57.04% # Type of FU issued
system.cpu0.iq.FU_type_0::SimdSha256Hash            0      0.00%     57.04% # Type of FU issued
system.cpu0.iq.FU_type_0::SimdSha256Hash2            0      0.00%     57.04% # Type of FU issued
system.cpu0.iq.FU_type_0::SimdShaSigma2             0      0.00%     57.04% # Type of FU issued
system.cpu0.iq.FU_type_0::SimdShaSigma3             0      0.00%     57.04% # Type of FU issued
system.cpu0.iq.FU_type_0::SimdPredAlu               0      0.00%     57.04% # Type of FU issued
system.cpu0.iq.FU_type_0::MemRead           439402881     31.65%     88.69% # Type of FU issued
system.cpu0.iq.FU_type_0::MemWrite          157018308     11.31%    100.00% # Type of FU issued
system.cpu0.iq.FU_type_0::FloatMemRead              8      0.00%    100.00% # Type of FU issued
system.cpu0.iq.FU_type_0::FloatMemWrite            16      0.00%    100.00% # Type of FU issued
system.cpu0.iq.FU_type_0::IprAccess                 0      0.00%    100.00% # Type of FU issued
system.cpu0.iq.FU_type_0::InstPrefetch              0      0.00%    100.00% # Type of FU issued
system.cpu0.iq.FU_type_0::total            1388250274                       # Type of FU issued
system.cpu0.iq.fp_alu_accesses                     49                       # Number of floating point alu accesses
system.cpu0.iq.fp_inst_queue_reads                 95                       # Number of floating instruction queue reads
system.cpu0.iq.fp_inst_queue_wakeup_accesses           46                       # Number of floating instruction queue wakeup accesses
system.cpu0.iq.fp_inst_queue_writes                46                       # Number of floating instruction queue writes
system.cpu0.iq.fu_busy_cnt                    3914911                       # FU busy when requested
system.cpu0.iq.fu_busy_rate                  0.002820                       # FU busy rate (busy events/executed inst)
system.cpu0.iq.fu_full::No_OpClass                  0      0.00%      0.00% # attempts to use FU when none available
system.cpu0.iq.fu_full::IntAlu                1253469     32.02%     32.02% # attempts to use FU when none available
system.cpu0.iq.fu_full::IntMult                     0      0.00%     32.02% # attempts to use FU when none available
system.cpu0.iq.fu_full::IntDiv                      0      0.00%     32.02% # attempts to use FU when none available
system.cpu0.iq.fu_full::FloatAdd                    0      0.00%     32.02% # attempts to use FU when none available
system.cpu0.iq.fu_full::FloatCmp                    0      0.00%     32.02% # attempts to use FU when none available
system.cpu0.iq.fu_full::FloatCvt                    0      0.00%     32.02% # attempts to use FU when none available
system.cpu0.iq.fu_full::FloatMult                   0      0.00%     32.02% # attempts to use FU when none available
system.cpu0.iq.fu_full::FloatMultAcc                0      0.00%     32.02% # attempts to use FU when none available
system.cpu0.iq.fu_full::FloatDiv                    0      0.00%     32.02% # attempts to use FU when none available
system.cpu0.iq.fu_full::FloatMisc                   0      0.00%     32.02% # attempts to use FU when none available
system.cpu0.iq.fu_full::FloatSqrt                   0      0.00%     32.02% # attempts to use FU when none available
system.cpu0.iq.fu_full::SimdAdd                     0      0.00%     32.02% # attempts to use FU when none available
system.cpu0.iq.fu_full::SimdAddAcc                  0      0.00%     32.02% # attempts to use FU when none available
system.cpu0.iq.fu_full::SimdAlu                     0      0.00%     32.02% # attempts to use FU when none available
system.cpu0.iq.fu_full::SimdCmp                     0      0.00%     32.02% # attempts to use FU when none available
system.cpu0.iq.fu_full::SimdCvt                     0      0.00%     32.02% # attempts to use FU when none available
system.cpu0.iq.fu_full::SimdMisc                    0      0.00%     32.02% # attempts to use FU when none available
system.cpu0.iq.fu_full::SimdMult                    0      0.00%     32.02% # attempts to use FU when none available
system.cpu0.iq.fu_full::SimdMultAcc                 0      0.00%     32.02% # attempts to use FU when none available
system.cpu0.iq.fu_full::SimdShift                   0      0.00%     32.02% # attempts to use FU when none available
system.cpu0.iq.fu_full::SimdShiftAcc                0      0.00%     32.02% # attempts to use FU when none available
system.cpu0.iq.fu_full::SimdDiv                     0      0.00%     32.02% # attempts to use FU when none available
system.cpu0.iq.fu_full::SimdSqrt                    0      0.00%     32.02% # attempts to use FU when none available
system.cpu0.iq.fu_full::SimdFloatAdd                0      0.00%     32.02% # attempts to use FU when none available
system.cpu0.iq.fu_full::SimdFloatAlu                0      0.00%     32.02% # attempts to use FU when none available
system.cpu0.iq.fu_full::SimdFloatCmp                0      0.00%     32.02% # attempts to use FU when none available
system.cpu0.iq.fu_full::SimdFloatCvt                0      0.00%     32.02% # attempts to use FU when none available
system.cpu0.iq.fu_full::SimdFloatDiv                0      0.00%     32.02% # attempts to use FU when none available
system.cpu0.iq.fu_full::SimdFloatMisc               0      0.00%     32.02% # attempts to use FU when none available
system.cpu0.iq.fu_full::SimdFloatMult               0      0.00%     32.02% # attempts to use FU when none available
system.cpu0.iq.fu_full::SimdFloatMultAcc            0      0.00%     32.02% # attempts to use FU when none available
system.cpu0.iq.fu_full::SimdFloatSqrt               0      0.00%     32.02% # attempts to use FU when none available
system.cpu0.iq.fu_full::SimdReduceAdd               0      0.00%     32.02% # attempts to use FU when none available
system.cpu0.iq.fu_full::SimdReduceAlu               0      0.00%     32.02% # attempts to use FU when none available
system.cpu0.iq.fu_full::SimdReduceCmp               0      0.00%     32.02% # attempts to use FU when none available
system.cpu0.iq.fu_full::SimdFloatReduceAdd            0      0.00%     32.02% # attempts to use FU when none available
system.cpu0.iq.fu_full::SimdFloatReduceCmp            0      0.00%     32.02% # attempts to use FU when none available
system.cpu0.iq.fu_full::SimdAes                     0      0.00%     32.02% # attempts to use FU when none available
system.cpu0.iq.fu_full::SimdAesMix                  0      0.00%     32.02% # attempts to use FU when none available
system.cpu0.iq.fu_full::SimdSha1Hash                0      0.00%     32.02% # attempts to use FU when none available
system.cpu0.iq.fu_full::SimdSha1Hash2               0      0.00%     32.02% # attempts to use FU when none available
system.cpu0.iq.fu_full::SimdSha256Hash              0      0.00%     32.02% # attempts to use FU when none available
system.cpu0.iq.fu_full::SimdSha256Hash2             0      0.00%     32.02% # attempts to use FU when none available
system.cpu0.iq.fu_full::SimdShaSigma2               0      0.00%     32.02% # attempts to use FU when none available
system.cpu0.iq.fu_full::SimdShaSigma3               0      0.00%     32.02% # attempts to use FU when none available
system.cpu0.iq.fu_full::SimdPredAlu                 0      0.00%     32.02% # attempts to use FU when none available
system.cpu0.iq.fu_full::MemRead               2073033     52.95%     84.97% # attempts to use FU when none available
system.cpu0.iq.fu_full::MemWrite               588406     15.03%    100.00% # attempts to use FU when none available
system.cpu0.iq.fu_full::FloatMemRead                0      0.00%    100.00% # attempts to use FU when none available
system.cpu0.iq.fu_full::FloatMemWrite               3      0.00%    100.00% # attempts to use FU when none available
system.cpu0.iq.fu_full::IprAccess                   0      0.00%    100.00% # attempts to use FU when none available
system.cpu0.iq.fu_full::InstPrefetch                0      0.00%    100.00% # attempts to use FU when none available
system.cpu0.iq.int_alu_accesses            1387959522                       # Number of integer alu accesses
system.cpu0.iq.int_inst_queue_reads        5165037072                       # Number of integer instruction queue reads
system.cpu0.iq.int_inst_queue_wakeup_accesses   1372821671                       # Number of integer instruction queue wakeup accesses
system.cpu0.iq.int_inst_queue_writes       1527120632                       # Number of integer instruction queue writes
system.cpu0.iq.iqInstsAdded                1410387038                       # Number of instructions added to the IQ (excludes non-spec)
system.cpu0.iq.iqInstsIssued               1388250274                       # Number of instructions issued
system.cpu0.iq.iqNonSpecInstsAdded           12496552                       # Number of non-speculative instructions added to the IQ
system.cpu0.iq.iqSquashedInstsExamined      104228995                       # Number of squashed instructions iterated over during squash; mainly for profiling
system.cpu0.iq.iqSquashedInstsIssued           243202                       # Number of squashed instructions issued
system.cpu0.iq.iqSquashedNonSpecRemoved       6186778                       # Number of squashed non-spec instructions that were removed
system.cpu0.iq.iqSquashedOperandsExamined     51016695                       # Number of squashed operands that are examined and possibly removed from graph
system.cpu0.iq.issued_per_cycle::samples   2384378508                       # Number of insts issued each cycle
system.cpu0.iq.issued_per_cycle::mean        0.582227                       # Number of insts issued each cycle
system.cpu0.iq.issued_per_cycle::stdev       0.853962                       # Number of insts issued each cycle
system.cpu0.iq.issued_per_cycle::underflows            0      0.00%      0.00% # Number of insts issued each cycle
system.cpu0.iq.issued_per_cycle::0         1411572620     59.20%     59.20% # Number of insts issued each cycle
system.cpu0.iq.issued_per_cycle::1          670548266     28.12%     87.32% # Number of insts issued each cycle
system.cpu0.iq.issued_per_cycle::2          219606045      9.21%     96.53% # Number of insts issued each cycle
system.cpu0.iq.issued_per_cycle::3           64447045      2.70%     99.24% # Number of insts issued each cycle
system.cpu0.iq.issued_per_cycle::4           11696686      0.49%     99.73% # Number of insts issued each cycle
system.cpu0.iq.issued_per_cycle::5            2475991      0.10%     99.83% # Number of insts issued each cycle
system.cpu0.iq.issued_per_cycle::6            2548130      0.11%     99.94% # Number of insts issued each cycle
system.cpu0.iq.issued_per_cycle::7            1176496      0.05%     99.99% # Number of insts issued each cycle
system.cpu0.iq.issued_per_cycle::8             307229      0.01%    100.00% # Number of insts issued each cycle
system.cpu0.iq.issued_per_cycle::overflows            0      0.00%    100.00% # Number of insts issued each cycle
system.cpu0.iq.issued_per_cycle::min_value            0                       # Number of insts issued each cycle
system.cpu0.iq.issued_per_cycle::max_value            8                       # Number of insts issued each cycle
system.cpu0.iq.issued_per_cycle::total     2384378508                       # Number of insts issued each cycle
system.cpu0.iq.rate                          0.546424                       # Inst issue rate
system.cpu0.iq.vec_alu_accesses                     0                       # Number of vector alu accesses
system.cpu0.iq.vec_inst_queue_reads                 0                       # Number of vector instruction queue reads
system.cpu0.iq.vec_inst_queue_wakeup_accesses            0                       # Number of vector instruction queue wakeup accesses
system.cpu0.iq.vec_inst_queue_writes                0                       # Number of vector instruction queue writes
system.cpu0.itb.accesses                            0                       # DTB accesses
system.cpu0.itb.hits                                0                       # DTB hits
system.cpu0.itb.misses                              0                       # DTB misses
system.cpu0.itb.read_accesses                       0                       # DTB read accesses
system.cpu0.itb.read_hits                           0                       # DTB read hits
system.cpu0.itb.read_misses                         0                       # DTB read misses
system.cpu0.itb.write_accesses                      0                       # DTB write accesses
system.cpu0.itb.write_hits                          0                       # DTB write hits
system.cpu0.itb.write_misses                        0                       # DTB write misses
system.cpu0.memDep0.conflictingLoads         30787092                       # Number of conflicting loads.
system.cpu0.memDep0.conflictingStores         3671629                       # Number of conflicting stores.
system.cpu0.memDep0.insertedLoads           446441117                       # Number of loads inserted to the mem dependence unit.
system.cpu0.memDep0.insertedStores          163746753                       # Number of stores inserted to the mem dependence unit.
system.cpu0.misc_regfile_reads                   1899                       # number of misc regfile reads
system.cpu0.misc_regfile_writes                    22                       # number of misc regfile writes
system.cpu0.numCycles                      2540610850                       # number of cpu cycles simulated
system.cpu0.numWorkItemsCompleted                   0                       # number of work items this cpu completed
system.cpu0.numWorkItemsStarted                     0                       # number of work items this cpu started
system.cpu0.quiesceCycles                     8740752                       # Total number of cycles that CPU has spent quiesced or waiting for an interrupt
system.cpu0.rename.BlockCycles              382881537                       # Number of cycles rename is blocking
system.cpu0.rename.CommittedMaps            845197725                       # Number of HB maps that are committed
system.cpu0.rename.IQFullEvents              12552512                       # Number of times rename has blocked due to IQ full
system.cpu0.rename.IdleCycles               926897844                       # Number of cycles rename is idle
system.cpu0.rename.LQFullEvents              28801427                       # Number of times rename has blocked due to LQ full
system.cpu0.rename.ROBFullEvents                29354                       # Number of times rename has blocked due to ROB full
system.cpu0.rename.RenameLookups           1774971943                       # Number of register rename lookups that rename has made
system.cpu0.rename.RenamedInsts            1446403668                       # Number of instructions processed by rename
system.cpu0.rename.RenamedOperands          938482298                       # Number of destination operands rename has renamed
system.cpu0.rename.RunCycles                977766130                       # Number of cycles rename is running
system.cpu0.rename.SQFullEvents              42416694                       # Number of times rename has blocked due to SQ full
system.cpu0.rename.SquashCycles              11897343                       # Number of cycles rename is squashing
system.cpu0.rename.UnblockCycles             84773924                       # Number of cycles rename is unblocking
system.cpu0.rename.UndoneMaps                93284562                       # Number of HB maps that are undone due to squashing
system.cpu0.rename.fp_rename_lookups               40                       # Number of floating rename lookups
system.cpu0.rename.int_rename_lookups      1774971903                       # Number of integer rename lookups
system.cpu0.rename.serializeStallCycles        161730                       # count of cycles rename stalled for serializing inst
system.cpu0.rename.serializingInsts              5870                       # count of serializing insts renamed
system.cpu0.rename.skidInsts                 29951345                       # count of insts added to the skid buffer
system.cpu0.rename.tempSerializingInsts          5867                       # count of temporary serializing insts renamed
system.cpu0.rob.rob_reads                  3745366189                       # The number of ROB reads
system.cpu0.rob.rob_writes                 2867890380                       # The number of ROB writes
system.cpu0.timesIdled                       25249276                       # Number of times that the entire CPU went into an idle state and unscheduled itself
system.cpu0.workload.numSyscalls                 1866                       # Number of system calls
system.cpu1.branchPred.BTBCorrect                   0                       # Number of correct BTB predictions (this stat may not work properly.
system.cpu1.branchPred.BTBHitPct            90.582197                       # BTB Hit Percentage
system.cpu1.branchPred.BTBHits               20942893                       # Number of BTB hits
system.cpu1.branchPred.BTBLookups            23120319                       # Number of BTB lookups
system.cpu1.branchPred.RASInCorrect                 0                       # Number of incorrect RAS predictions.
system.cpu1.branchPred.condIncorrect          2786356                       # Number of conditional branches incorrect
system.cpu1.branchPred.condPredicted         31144601                       # Number of conditional branches predicted
system.cpu1.branchPred.indirectHits           1079923                       # Number of indirect target hits.
system.cpu1.branchPred.indirectLookups        1106948                       # Number of indirect predictor lookups.
system.cpu1.branchPred.indirectMisses           27025                       # Number of indirect misses.
system.cpu1.branchPred.lookups               35754888                       # Number of BP lookups
system.cpu1.branchPred.usedRAS                      0                       # Number of times the RAS was used to get a target.
system.cpu1.branchPredindirectMispredicted        47846                       # Number of mispredicted indirect branches.
system.cpu1.commit.amos                       2100002                       # Number of atomic instructions committed
system.cpu1.commit.branchMispredicts          1985683                       # The number of times a branch was mispredicted
system.cpu1.commit.branches                  28116772                       # Number of branches committed
system.cpu1.commit.bw_lim_events              4069495                       # number cycles where commit BW limit reached
system.cpu1.commit.commitNonSpecStalls        6300690                       # The number of times commit has been forced to stall to communicate backwards
system.cpu1.commit.commitSquashedInsts       16949683                       # The number of squashed insts skipped by commit
system.cpu1.commit.committedInsts           120052732                       # Number of instructions committed
system.cpu1.commit.committedOps             122152916                       # Number of ops (including micro ops) committed
system.cpu1.commit.committed_per_cycle::samples    485524179                       # Number of insts commited each cycle
system.cpu1.commit.committed_per_cycle::mean     0.251590                       # Number of insts commited each cycle
system.cpu1.commit.committed_per_cycle::stdev     1.013759                       # Number of insts commited each cycle
system.cpu1.commit.committed_per_cycle::underflows            0      0.00%      0.00% # Number of insts commited each cycle
system.cpu1.commit.committed_per_cycle::0    436528148     89.91%     89.91% # Number of insts commited each cycle
system.cpu1.commit.committed_per_cycle::1     24458323      5.04%     94.95% # Number of insts commited each cycle
system.cpu1.commit.committed_per_cycle::2      7788231      1.60%     96.55% # Number of insts commited each cycle
system.cpu1.commit.committed_per_cycle::3      7355593      1.51%     98.07% # Number of insts commited each cycle
system.cpu1.commit.committed_per_cycle::4      2010092      0.41%     98.48% # Number of insts commited each cycle
system.cpu1.commit.committed_per_cycle::5       786812      0.16%     98.64% # Number of insts commited each cycle
system.cpu1.commit.committed_per_cycle::6      2171431      0.45%     99.09% # Number of insts commited each cycle
system.cpu1.commit.committed_per_cycle::7       356054      0.07%     99.16% # Number of insts commited each cycle
system.cpu1.commit.committed_per_cycle::8      4069495      0.84%    100.00% # Number of insts commited each cycle
system.cpu1.commit.committed_per_cycle::overflows            0      0.00%    100.00% # Number of insts commited each cycle
system.cpu1.commit.committed_per_cycle::min_value            0                       # Number of insts commited each cycle
system.cpu1.commit.committed_per_cycle::max_value            8                       # Number of insts commited each cycle
system.cpu1.commit.committed_per_cycle::total    485524179                       # Number of insts commited each cycle
system.cpu1.commit.fp_insts                        12                       # Number of committed floating point instructions.
system.cpu1.commit.function_calls             1797655                       # Number of function calls committed.
system.cpu1.commit.int_insts                116590254                       # Number of committed integer instructions.
system.cpu1.commit.loads                     30173864                       # Number of loads committed
system.cpu1.commit.membars                    4200124                       # Number of memory barriers committed
system.cpu1.commit.op_class_0::No_OpClass      4200124      3.44%      3.44% # Class of committed instruction
system.cpu1.commit.op_class_0::IntAlu        76659329     62.76%     66.20% # Class of committed instruction
system.cpu1.commit.op_class_0::IntMult             44      0.00%     66.20% # Class of committed instruction
system.cpu1.commit.op_class_0::IntDiv              88      0.00%     66.20% # Class of committed instruction
system.cpu1.commit.op_class_0::FloatAdd             0      0.00%     66.20% # Class of committed instruction
system.cpu1.commit.op_class_0::FloatCmp             0      0.00%     66.20% # Class of committed instruction
system.cpu1.commit.op_class_0::FloatCvt             0      0.00%     66.20% # Class of committed instruction
system.cpu1.commit.op_class_0::FloatMult            0      0.00%     66.20% # Class of committed instruction
system.cpu1.commit.op_class_0::FloatMultAcc            0      0.00%     66.20% # Class of committed instruction
system.cpu1.commit.op_class_0::FloatDiv             0      0.00%     66.20% # Class of committed instruction
system.cpu1.commit.op_class_0::FloatMisc            0      0.00%     66.20% # Class of committed instruction
system.cpu1.commit.op_class_0::FloatSqrt            0      0.00%     66.20% # Class of committed instruction
system.cpu1.commit.op_class_0::SimdAdd              0      0.00%     66.20% # Class of committed instruction
system.cpu1.commit.op_class_0::SimdAddAcc            0      0.00%     66.20% # Class of committed instruction
system.cpu1.commit.op_class_0::SimdAlu              0      0.00%     66.20% # Class of committed instruction
system.cpu1.commit.op_class_0::SimdCmp              0      0.00%     66.20% # Class of committed instruction
system.cpu1.commit.op_class_0::SimdCvt              0      0.00%     66.20% # Class of committed instruction
system.cpu1.commit.op_class_0::SimdMisc             0      0.00%     66.20% # Class of committed instruction
system.cpu1.commit.op_class_0::SimdMult             0      0.00%     66.20% # Class of committed instruction
system.cpu1.commit.op_class_0::SimdMultAcc            0      0.00%     66.20% # Class of committed instruction
system.cpu1.commit.op_class_0::SimdShift            0      0.00%     66.20% # Class of committed instruction
system.cpu1.commit.op_class_0::SimdShiftAcc            0      0.00%     66.20% # Class of committed instruction
system.cpu1.commit.op_class_0::SimdDiv              0      0.00%     66.20% # Class of committed instruction
system.cpu1.commit.op_class_0::SimdSqrt             0      0.00%     66.20% # Class of committed instruction
system.cpu1.commit.op_class_0::SimdFloatAdd            0      0.00%     66.20% # Class of committed instruction
system.cpu1.commit.op_class_0::SimdFloatAlu            0      0.00%     66.20% # Class of committed instruction
system.cpu1.commit.op_class_0::SimdFloatCmp            0      0.00%     66.20% # Class of committed instruction
system.cpu1.commit.op_class_0::SimdFloatCvt            0      0.00%     66.20% # Class of committed instruction
system.cpu1.commit.op_class_0::SimdFloatDiv            0      0.00%     66.20% # Class of committed instruction
system.cpu1.commit.op_class_0::SimdFloatMisc            0      0.00%     66.20% # Class of committed instruction
system.cpu1.commit.op_class_0::SimdFloatMult            0      0.00%     66.20% # Class of committed instruction
system.cpu1.commit.op_class_0::SimdFloatMultAcc            0      0.00%     66.20% # Class of committed instruction
system.cpu1.commit.op_class_0::SimdFloatSqrt            0      0.00%     66.20% # Class of committed instruction
system.cpu1.commit.op_class_0::SimdReduceAdd            0      0.00%     66.20% # Class of committed instruction
system.cpu1.commit.op_class_0::SimdReduceAlu            0      0.00%     66.20% # Class of committed instruction
system.cpu1.commit.op_class_0::SimdReduceCmp            0      0.00%     66.20% # Class of committed instruction
system.cpu1.commit.op_class_0::SimdFloatReduceAdd            0      0.00%     66.20% # Class of committed instruction
system.cpu1.commit.op_class_0::SimdFloatReduceCmp            0      0.00%     66.20% # Class of committed instruction
system.cpu1.commit.op_class_0::SimdAes              0      0.00%     66.20% # Class of committed instruction
system.cpu1.commit.op_class_0::SimdAesMix            0      0.00%     66.20% # Class of committed instruction
system.cpu1.commit.op_class_0::SimdSha1Hash            0      0.00%     66.20% # Class of committed instruction
system.cpu1.commit.op_class_0::SimdSha1Hash2            0      0.00%     66.20% # Class of committed instruction
system.cpu1.commit.op_class_0::SimdSha256Hash            0      0.00%     66.20% # Class of committed instruction
system.cpu1.commit.op_class_0::SimdSha256Hash2            0      0.00%     66.20% # Class of committed instruction
system.cpu1.commit.op_class_0::SimdShaSigma2            0      0.00%     66.20% # Class of committed instruction
system.cpu1.commit.op_class_0::SimdShaSigma3            0      0.00%     66.20% # Class of committed instruction
system.cpu1.commit.op_class_0::SimdPredAlu            0      0.00%     66.20% # Class of committed instruction
system.cpu1.commit.op_class_0::MemRead       32273866     26.42%     92.62% # Class of committed instruction
system.cpu1.commit.op_class_0::MemWrite       9019453      7.38%    100.00% # Class of committed instruction
system.cpu1.commit.op_class_0::FloatMemRead            0      0.00%    100.00% # Class of committed instruction
system.cpu1.commit.op_class_0::FloatMemWrite           12      0.00%    100.00% # Class of committed instruction
system.cpu1.commit.op_class_0::IprAccess            0      0.00%    100.00% # Class of committed instruction
system.cpu1.commit.op_class_0::InstPrefetch            0      0.00%    100.00% # Class of committed instruction
system.cpu1.commit.op_class_0::total        122152916                       # Class of committed instruction
system.cpu1.commit.refs                      41293331                       # Number of memory references committed
system.cpu1.commit.swp_count                        0                       # Number of s/w prefetches committed
system.cpu1.commit.vec_insts                        0                       # Number of committed Vector instructions.
system.cpu1.committedInsts                  120052732                       # Number of Instructions Simulated
system.cpu1.committedOps                    122152916                       # Number of Ops (including micro ops) Simulated
system.cpu1.cpi                              4.080295                       # CPI: Cycles Per Instruction
system.cpu1.cpi_total                        4.080295                       # CPI: Total CPI of All Threads
system.cpu1.decode.BlockedCycles            395065029                       # Number of cycles decode is blocked
system.cpu1.decode.BranchMispred               803820                       # Number of times decode detected a branch misprediction
system.cpu1.decode.BranchResolved            19857191                       # Number of times decode resolved a branch
system.cpu1.decode.DecodedInsts             146610813                       # Number of instructions handled by decode
system.cpu1.decode.IdleCycles                22103358                       # Number of cycles decode is idle
system.cpu1.decode.RunCycles                 64627726                       # Number of cycles decode is running
system.cpu1.decode.SquashCycles               1987416                       # Number of cycles decode is squashing
system.cpu1.decode.SquashedInsts              1350027                       # Number of squashed instructions handled by decode
system.cpu1.decode.UnblockCycles              5168522                       # Number of cycles decode is unblocking
system.cpu1.dtb.accesses                            0                       # DTB accesses
system.cpu1.dtb.hits                                0                       # DTB hits
system.cpu1.dtb.misses                              0                       # DTB misses
system.cpu1.dtb.read_accesses                       0                       # DTB read accesses
system.cpu1.dtb.read_hits                           0                       # DTB read hits
system.cpu1.dtb.read_misses                         0                       # DTB read misses
system.cpu1.dtb.write_accesses                      0                       # DTB write accesses
system.cpu1.dtb.write_hits                          0                       # DTB write hits
system.cpu1.dtb.write_misses                        0                       # DTB write misses
system.cpu1.fetch.Branches                   35754888                       # Number of branches that fetch encountered
system.cpu1.fetch.CacheLines                 20974484                       # Number of cache lines fetched
system.cpu1.fetch.Cycles                    463190288                       # Number of cycles fetch has run and was not squashing or blocked
system.cpu1.fetch.IcacheSquashes               401198                       # Number of outstanding Icache misses that were squashed
system.cpu1.fetch.Insts                     151986866                       # Number of instructions fetch has processed
system.cpu1.fetch.MiscStallCycles                   1                       # Number of cycles fetch has spent waiting on interrupts, or bad addresses, or out of MSHRs
system.cpu1.fetch.SquashCycles                5576178                       # Number of cycles fetch has spent squashing
system.cpu1.fetch.branchRate                 0.072991                       # Number of branch fetches per cycle
system.cpu1.fetch.icacheStallCycles          22973673                       # Number of cycles fetch is stalled on an Icache miss
system.cpu1.fetch.predictedBranches          22022816                       # Number of branches that fetch has predicted taken
system.cpu1.fetch.rate                       0.310272                       # Number of inst fetches per cycle
system.cpu1.fetch.rateDist::samples         488952051                       # Number of instructions fetched each cycle (Total)
system.cpu1.fetch.rateDist::mean             0.315139                       # Number of instructions fetched each cycle (Total)
system.cpu1.fetch.rateDist::stdev            0.754216                       # Number of instructions fetched each cycle (Total)
system.cpu1.fetch.rateDist::underflows              0      0.00%      0.00% # Number of instructions fetched each cycle (Total)
system.cpu1.fetch.rateDist::0               391756731     80.12%     80.12% # Number of instructions fetched each cycle (Total)
system.cpu1.fetch.rateDist::1                62751167     12.83%     92.96% # Number of instructions fetched each cycle (Total)
system.cpu1.fetch.rateDist::2                17255934      3.53%     96.48% # Number of instructions fetched each cycle (Total)
system.cpu1.fetch.rateDist::3                13306742      2.72%     99.21% # Number of instructions fetched each cycle (Total)
system.cpu1.fetch.rateDist::4                 2825027      0.58%     99.78% # Number of instructions fetched each cycle (Total)
system.cpu1.fetch.rateDist::5                  735316      0.15%     99.93% # Number of instructions fetched each cycle (Total)
system.cpu1.fetch.rateDist::6                  320581      0.07%    100.00% # Number of instructions fetched each cycle (Total)
system.cpu1.fetch.rateDist::7                      10      0.00%    100.00% # Number of instructions fetched each cycle (Total)
system.cpu1.fetch.rateDist::8                     543      0.00%    100.00% # Number of instructions fetched each cycle (Total)
system.cpu1.fetch.rateDist::overflows               0      0.00%    100.00% # Number of instructions fetched each cycle (Total)
system.cpu1.fetch.rateDist::min_value               0                       # Number of instructions fetched each cycle (Total)
system.cpu1.fetch.rateDist::max_value               8                       # Number of instructions fetched each cycle (Total)
system.cpu1.fetch.rateDist::total           488952051                       # Number of instructions fetched each cycle (Total)
system.cpu1.fp_regfile_reads                       12                       # number of floating regfile reads
system.cpu1.idleCycles                         898477                       # Total number of cycles that the CPU has spent unscheduled due to idling
system.cpu1.iew.branchMispredicts             2060716                       # Number of branch mispredicts detected at execute
system.cpu1.iew.exec_branches                30662112                       # Number of branches executed
system.cpu1.iew.exec_nop                            0                       # number of nop insts executed
system.cpu1.iew.exec_rate                    0.273661                       # Inst execution rate
system.cpu1.iew.exec_refs                    45771823                       # number of memory reference insts executed
system.cpu1.iew.exec_stores                  11536132                       # Number of stores executed
system.cpu1.iew.exec_swp                            0                       # number of swp insts executed
system.cpu1.iew.iewBlockCycles              320870324                       # Number of cycles IEW is blocking
system.cpu1.iew.iewDispLoadInsts             34498299                       # Number of dispatched load instructions
system.cpu1.iew.iewDispNonSpecInsts           2100699                       # Number of dispatched non-speculative instructions
system.cpu1.iew.iewDispSquashedInsts          2354646                       # Number of squashed instructions skipped by dispatch
system.cpu1.iew.iewDispStoreInsts            11994997                       # Number of dispatched store instructions
system.cpu1.iew.iewDispatchedInsts          139065961                       # Number of instructions dispatched to IQ
system.cpu1.iew.iewExecLoadInsts             34235691                       # Number of load instructions executed
system.cpu1.iew.iewExecSquashedInsts          1902036                       # Number of squashed instructions skipped in execute
system.cpu1.iew.iewExecutedInsts            134053005                       # Number of executed instructions
system.cpu1.iew.iewIQFullEvents               1547358                       # Number of times the IQ has become full, causing a stall
system.cpu1.iew.iewIdleCycles                       0                       # Number of cycles IEW is idle
system.cpu1.iew.iewLSQFullEvents              6734537                       # Number of times the LSQ has become full, causing a stall
system.cpu1.iew.iewSquashCycles               1987416                       # Number of cycles IEW is squashing
system.cpu1.iew.iewUnblockCycles             10937161                       # Number of cycles IEW is unblocking
system.cpu1.iew.lsq.thread0.blockedLoads            0                       # Number of blocked loads due to partial load-store forwarding
system.cpu1.iew.lsq.thread0.cacheBlocked       164625                       # Number of times an access to memory failed due to the cache being blocked
system.cpu1.iew.lsq.thread0.forwLoads          989479                       # Number of loads that had data forwarded from stores
system.cpu1.iew.lsq.thread0.ignoredResponses        48597                       # Number of memory responses ignored because the instruction is squashed
system.cpu1.iew.lsq.thread0.invAddrLoads            0                       # Number of loads ignored due to an invalid address
system.cpu1.iew.lsq.thread0.invAddrSwpfs            0                       # Number of software prefetches ignored due to an invalid address
system.cpu1.iew.lsq.thread0.memOrderViolation         2282                       # Number of memory ordering violations
system.cpu1.iew.lsq.thread0.rescheduledLoads        18018                       # Number of loads that were rescheduled
system.cpu1.iew.lsq.thread0.squashedLoads      4324435                       # Number of loads squashed
system.cpu1.iew.lsq.thread0.squashedStores       875530                       # Number of stores squashed
system.cpu1.iew.memOrderViolationEvents          2282                       # Number of memory order violations
system.cpu1.iew.predictedNotTakenIncorrect       537127                       # Number of branches that were predicted not taken incorrectly
system.cpu1.iew.predictedTakenIncorrect       1523589                       # Number of branches that were predicted taken incorrectly
system.cpu1.iew.wb_consumers                 79399487                       # num instructions consuming a value
system.cpu1.iew.wb_count                    132220270                       # cumulative count of insts written-back
system.cpu1.iew.wb_fanout                    0.829400                       # average fanout of values written-back
system.cpu1.iew.wb_producers                 65853923                       # num instructions producing a value
system.cpu1.iew.wb_rate                      0.269920                       # insts written-back per cycle
system.cpu1.iew.wb_sent                     132294608                       # cumulative count of insts sent to commit
system.cpu1.int_regfile_reads               169935130                       # number of integer regfile reads
system.cpu1.int_regfile_writes               89023065                       # number of integer regfile writes
system.cpu1.ipc                              0.245080                       # IPC: Instructions Per Cycle
system.cpu1.ipc_total                        0.245080                       # IPC: Total IPC of All Threads
system.cpu1.iq.FU_type_0::No_OpClass          4200232      3.09%      3.09% # Type of FU issued
system.cpu1.iq.FU_type_0::IntAlu             85485420     62.88%     65.97% # Type of FU issued
system.cpu1.iq.FU_type_0::IntMult                  46      0.00%     65.97% # Type of FU issued
system.cpu1.iq.FU_type_0::IntDiv                   89      0.00%     65.97% # Type of FU issued
system.cpu1.iq.FU_type_0::FloatAdd                  0      0.00%     65.97% # Type of FU issued
system.cpu1.iq.FU_type_0::FloatCmp                  0      0.00%     65.97% # Type of FU issued
system.cpu1.iq.FU_type_0::FloatCvt                  0      0.00%     65.97% # Type of FU issued
system.cpu1.iq.FU_type_0::FloatMult                 0      0.00%     65.97% # Type of FU issued
system.cpu1.iq.FU_type_0::FloatMultAcc              0      0.00%     65.97% # Type of FU issued
system.cpu1.iq.FU_type_0::FloatDiv                  0      0.00%     65.97% # Type of FU issued
system.cpu1.iq.FU_type_0::FloatMisc                 0      0.00%     65.97% # Type of FU issued
system.cpu1.iq.FU_type_0::FloatSqrt                 0      0.00%     65.97% # Type of FU issued
system.cpu1.iq.FU_type_0::SimdAdd                   0      0.00%     65.97% # Type of FU issued
system.cpu1.iq.FU_type_0::SimdAddAcc                0      0.00%     65.97% # Type of FU issued
system.cpu1.iq.FU_type_0::SimdAlu                   0      0.00%     65.97% # Type of FU issued
system.cpu1.iq.FU_type_0::SimdCmp                   0      0.00%     65.97% # Type of FU issued
system.cpu1.iq.FU_type_0::SimdCvt                   0      0.00%     65.97% # Type of FU issued
system.cpu1.iq.FU_type_0::SimdMisc                  0      0.00%     65.97% # Type of FU issued
system.cpu1.iq.FU_type_0::SimdMult                  0      0.00%     65.97% # Type of FU issued
system.cpu1.iq.FU_type_0::SimdMultAcc               0      0.00%     65.97% # Type of FU issued
system.cpu1.iq.FU_type_0::SimdShift                 0      0.00%     65.97% # Type of FU issued
system.cpu1.iq.FU_type_0::SimdShiftAcc              0      0.00%     65.97% # Type of FU issued
system.cpu1.iq.FU_type_0::SimdDiv                   0      0.00%     65.97% # Type of FU issued
system.cpu1.iq.FU_type_0::SimdSqrt                  0      0.00%     65.97% # Type of FU issued
system.cpu1.iq.FU_type_0::SimdFloatAdd              0      0.00%     65.97% # Type of FU issued
system.cpu1.iq.FU_type_0::SimdFloatAlu              0      0.00%     65.97% # Type of FU issued
system.cpu1.iq.FU_type_0::SimdFloatCmp              0      0.00%     65.97% # Type of FU issued
system.cpu1.iq.FU_type_0::SimdFloatCvt              0      0.00%     65.97% # Type of FU issued
system.cpu1.iq.FU_type_0::SimdFloatDiv              0      0.00%     65.97% # Type of FU issued
system.cpu1.iq.FU_type_0::SimdFloatMisc             0      0.00%     65.97% # Type of FU issued
system.cpu1.iq.FU_type_0::SimdFloatMult             0      0.00%     65.97% # Type of FU issued
system.cpu1.iq.FU_type_0::SimdFloatMultAcc            0      0.00%     65.97% # Type of FU issued
system.cpu1.iq.FU_type_0::SimdFloatSqrt             0      0.00%     65.97% # Type of FU issued
system.cpu1.iq.FU_type_0::SimdReduceAdd             0      0.00%     65.97% # Type of FU issued
system.cpu1.iq.FU_type_0::SimdReduceAlu             0      0.00%     65.97% # Type of FU issued
system.cpu1.iq.FU_type_0::SimdReduceCmp             0      0.00%     65.97% # Type of FU issued
system.cpu1.iq.FU_type_0::SimdFloatReduceAdd            0      0.00%     65.97% # Type of FU issued
system.cpu1.iq.FU_type_0::SimdFloatReduceCmp            0      0.00%     65.97% # Type of FU issued
system.cpu1.iq.FU_type_0::SimdAes                   0      0.00%     65.97% # Type of FU issued
system.cpu1.iq.FU_type_0::SimdAesMix                0      0.00%     65.97% # Type of FU issued
system.cpu1.iq.FU_type_0::SimdSha1Hash              0      0.00%     65.97% # Type of FU issued
system.cpu1.iq.FU_type_0::SimdSha1Hash2             0      0.00%     65.97% # Type of FU issued
system.cpu1.iq.FU_type_0::SimdSha256Hash            0      0.00%     65.97% # Type of FU issued
system.cpu1.iq.FU_type_0::SimdSha256Hash2            0      0.00%     65.97% # Type of FU issued
system.cpu1.iq.FU_type_0::SimdShaSigma2             0      0.00%     65.97% # Type of FU issued
system.cpu1.iq.FU_type_0::SimdShaSigma3             0      0.00%     65.97% # Type of FU issued
system.cpu1.iq.FU_type_0::SimdPredAlu               0      0.00%     65.97% # Type of FU issued
system.cpu1.iq.FU_type_0::MemRead            36733507     27.02%     92.99% # Type of FU issued
system.cpu1.iq.FU_type_0::MemWrite            9535735      7.01%    100.00% # Type of FU issued
system.cpu1.iq.FU_type_0::FloatMemRead              0      0.00%    100.00% # Type of FU issued
system.cpu1.iq.FU_type_0::FloatMemWrite            12      0.00%    100.00% # Type of FU issued
system.cpu1.iq.FU_type_0::IprAccess                 0      0.00%    100.00% # Type of FU issued
system.cpu1.iq.FU_type_0::InstPrefetch              0      0.00%    100.00% # Type of FU issued
system.cpu1.iq.FU_type_0::total             135955041                       # Type of FU issued
system.cpu1.iq.fp_alu_accesses                     15                       # Number of floating point alu accesses
system.cpu1.iq.fp_inst_queue_reads                 27                       # Number of floating instruction queue reads
system.cpu1.iq.fp_inst_queue_wakeup_accesses           12                       # Number of floating instruction queue wakeup accesses
system.cpu1.iq.fp_inst_queue_writes                12                       # Number of floating instruction queue writes
system.cpu1.iq.fu_busy_cnt                    3037194                       # FU busy when requested
system.cpu1.iq.fu_busy_rate                  0.022340                       # FU busy rate (busy events/executed inst)
system.cpu1.iq.fu_full::No_OpClass                  0      0.00%      0.00% # attempts to use FU when none available
system.cpu1.iq.fu_full::IntAlu                 659387     21.71%     21.71% # attempts to use FU when none available
system.cpu1.iq.fu_full::IntMult                     0      0.00%     21.71% # attempts to use FU when none available
system.cpu1.iq.fu_full::IntDiv                      0      0.00%     21.71% # attempts to use FU when none available
system.cpu1.iq.fu_full::FloatAdd                    0      0.00%     21.71% # attempts to use FU when none available
system.cpu1.iq.fu_full::FloatCmp                    0      0.00%     21.71% # attempts to use FU when none available
system.cpu1.iq.fu_full::FloatCvt                    0      0.00%     21.71% # attempts to use FU when none available
system.cpu1.iq.fu_full::FloatMult                   0      0.00%     21.71% # attempts to use FU when none available
system.cpu1.iq.fu_full::FloatMultAcc                0      0.00%     21.71% # attempts to use FU when none available
system.cpu1.iq.fu_full::FloatDiv                    0      0.00%     21.71% # attempts to use FU when none available
system.cpu1.iq.fu_full::FloatMisc                   0      0.00%     21.71% # attempts to use FU when none available
system.cpu1.iq.fu_full::FloatSqrt                   0      0.00%     21.71% # attempts to use FU when none available
system.cpu1.iq.fu_full::SimdAdd                     0      0.00%     21.71% # attempts to use FU when none available
system.cpu1.iq.fu_full::SimdAddAcc                  0      0.00%     21.71% # attempts to use FU when none available
system.cpu1.iq.fu_full::SimdAlu                     0      0.00%     21.71% # attempts to use FU when none available
system.cpu1.iq.fu_full::SimdCmp                     0      0.00%     21.71% # attempts to use FU when none available
system.cpu1.iq.fu_full::SimdCvt                     0      0.00%     21.71% # attempts to use FU when none available
system.cpu1.iq.fu_full::SimdMisc                    0      0.00%     21.71% # attempts to use FU when none available
system.cpu1.iq.fu_full::SimdMult                    0      0.00%     21.71% # attempts to use FU when none available
system.cpu1.iq.fu_full::SimdMultAcc                 0      0.00%     21.71% # attempts to use FU when none available
system.cpu1.iq.fu_full::SimdShift                   0      0.00%     21.71% # attempts to use FU when none available
system.cpu1.iq.fu_full::SimdShiftAcc                0      0.00%     21.71% # attempts to use FU when none available
system.cpu1.iq.fu_full::SimdDiv                     0      0.00%     21.71% # attempts to use FU when none available
system.cpu1.iq.fu_full::SimdSqrt                    0      0.00%     21.71% # attempts to use FU when none available
system.cpu1.iq.fu_full::SimdFloatAdd                0      0.00%     21.71% # attempts to use FU when none available
system.cpu1.iq.fu_full::SimdFloatAlu                0      0.00%     21.71% # attempts to use FU when none available
system.cpu1.iq.fu_full::SimdFloatCmp                0      0.00%     21.71% # attempts to use FU when none available
system.cpu1.iq.fu_full::SimdFloatCvt                0      0.00%     21.71% # attempts to use FU when none available
system.cpu1.iq.fu_full::SimdFloatDiv                0      0.00%     21.71% # attempts to use FU when none available
system.cpu1.iq.fu_full::SimdFloatMisc               0      0.00%     21.71% # attempts to use FU when none available
system.cpu1.iq.fu_full::SimdFloatMult               0      0.00%     21.71% # attempts to use FU when none available
system.cpu1.iq.fu_full::SimdFloatMultAcc            0      0.00%     21.71% # attempts to use FU when none available
system.cpu1.iq.fu_full::SimdFloatSqrt               0      0.00%     21.71% # attempts to use FU when none available
system.cpu1.iq.fu_full::SimdReduceAdd               0      0.00%     21.71% # attempts to use FU when none available
system.cpu1.iq.fu_full::SimdReduceAlu               0      0.00%     21.71% # attempts to use FU when none available
system.cpu1.iq.fu_full::SimdReduceCmp               0      0.00%     21.71% # attempts to use FU when none available
system.cpu1.iq.fu_full::SimdFloatReduceAdd            0      0.00%     21.71% # attempts to use FU when none available
system.cpu1.iq.fu_full::SimdFloatReduceCmp            0      0.00%     21.71% # attempts to use FU when none available
system.cpu1.iq.fu_full::SimdAes                     0      0.00%     21.71% # attempts to use FU when none available
system.cpu1.iq.fu_full::SimdAesMix                  0      0.00%     21.71% # attempts to use FU when none available
system.cpu1.iq.fu_full::SimdSha1Hash                0      0.00%     21.71% # attempts to use FU when none available
system.cpu1.iq.fu_full::SimdSha1Hash2               0      0.00%     21.71% # attempts to use FU when none available
system.cpu1.iq.fu_full::SimdSha256Hash              0      0.00%     21.71% # attempts to use FU when none available
system.cpu1.iq.fu_full::SimdSha256Hash2             0      0.00%     21.71% # attempts to use FU when none available
system.cpu1.iq.fu_full::SimdShaSigma2               0      0.00%     21.71% # attempts to use FU when none available
system.cpu1.iq.fu_full::SimdShaSigma3               0      0.00%     21.71% # attempts to use FU when none available
system.cpu1.iq.fu_full::SimdPredAlu                 0      0.00%     21.71% # attempts to use FU when none available
system.cpu1.iq.fu_full::MemRead               1866997     61.47%     83.18% # attempts to use FU when none available
system.cpu1.iq.fu_full::MemWrite               510807     16.82%    100.00% # attempts to use FU when none available
system.cpu1.iq.fu_full::FloatMemRead                0      0.00%    100.00% # attempts to use FU when none available
[...]
system.mem_ctrls.bytesReadSys                   29696                       # Total read bytes from the system interface side
system.mem_ctrls.bytesWrittenSys                 4544                       # Total written bytes from the system interface side
system.mem_ctrls.avgRdBW                      1212.17                       # Average DRAM read bandwidth in MiByte/s
system.mem_ctrls.avgWrBW                       172.40                       # Average achieved write bandwidth in MiByte/s
system.mem_ctrls.avgRdBWSys                   1249.88                       # Average system read bandwidth in MiByte/s
system.mem_ctrls.avgWrBWSys                    191.25                       # Average system write bandwidth in MiByte/s
system.mem_ctrls.peakBW                      12800.00                       # Theoretical peak bandwidth in MiByte/s
system.mem_ctrls.busUtil                        10.82                       # Data bus utilization in percentage
system.mem_ctrls.busUtilRead                     9.47                       # Data bus utilization in percentage for reads
system.mem_ctrls.busUtilWrite                    1.35                       # Data bus utilization in percentage for writes
system.mem_ctrls.totGap                      23727000                       # Total gap between requests
system.mem_ctrls.avgGap                      44349.53                       # Average gap between requests
system.mem_ctrls.masterReadBytes::.cpu0.inst        17024                       # Per-master bytes read from memory
system.mem_ctrls.masterReadBytes::.cpu0.data        10624                       # Per-master bytes read from memory
system.mem_ctrls.masterReadBytes::.l2.prefetcher         1152                       # Per-master bytes read from memory
system.mem_ctrls.masterWriteBytes::.writebacks         4096                       # Per-master bytes write to memory
system.mem_ctrls.masterReadRate::.cpu0.inst 716528473.420598506927                       # Per-master bytes read from memory rate (Bytes/sec)
system.mem_ctrls.masterReadRate::.cpu0.data 447156866.871501326561                       # Per-master bytes read from memory rate (Bytes/sec)
system.mem_ctrls.masterReadRate::.l2.prefetcher 48486889.178837493062                       # Per-master bytes read from memory rate (Bytes/sec)
system.mem_ctrls.masterWriteRate::.writebacks 172397828.191422194242                       # Per-master bytes write to memory rate (Bytes/sec)
system.mem_ctrls.masterReadAccesses::.cpu0.inst          266                       # Per-master read serviced memory accesses
system.mem_ctrls.masterReadAccesses::.cpu0.data          180                       # Per-master read serviced memory accesses
system.mem_ctrls.masterReadAccesses::.l2.prefetcher           18                       # Per-master read serviced memory accesses
system.mem_ctrls.masterWriteAccesses::.writebacks           71                       # Per-master write serviced memory accesses
system.mem_ctrls.masterReadTotalLat::.cpu0.inst      8657250                       # Per-master read total memory access latency
system.mem_ctrls.masterReadTotalLat::.cpu0.data      6024004                       # Per-master read total memory access latency
system.mem_ctrls.masterReadTotalLat::.l2.prefetcher       650007                       # Per-master read total memory access latency
system.mem_ctrls.masterWriteTotalLat::.writebacks    681125500                       # Per-master write total memory access latency
system.mem_ctrls.masterReadAvgLat::.cpu0.inst     32546.05                       # Per-master read average memory access latency
system.mem_ctrls.masterReadAvgLat::.cpu0.data     33466.69                       # Per-master read average memory access latency
system.mem_ctrls.masterReadAvgLat::.l2.prefetcher     36111.50                       # Per-master read average memory access latency
system.mem_ctrls.masterWriteAvgLat::.writebacks   9593316.90                       # Per-master write average memory access latency
system.mem_ctrls.pageHitRate                    71.32                       # Row buffer hit rate, read and write combined
system.mem_ctrls.rank1.actEnergy               371280                       # Energy for activate commands per rank (pJ)
system.mem_ctrls.rank1.preEnergy               201135                       # Energy for precharge commands per rank (pJ)
system.mem_ctrls.rank1.readEnergy             1306620                       # Energy for read commands per rank (pJ)
system.mem_ctrls.rank1.writeEnergy              67860                       # Energy for write commands per rank (pJ)
system.mem_ctrls.rank1.refreshEnergy     1843920.000000                       # Energy for refresh commands per rank (pJ)
system.mem_ctrls.rank1.actBackEnergy         10790100                       # Energy for active background per rank (pJ)
system.mem_ctrls.rank1.preBackEnergy            36960                       # Energy for precharge background per rank (pJ)
system.mem_ctrls.rank1.actPowerDownEnergy            0                       # Energy for active power-down per rank (pJ)
system.mem_ctrls.rank1.prePowerDownEnergy            0                       # Energy for precharge power-down per rank (pJ)
system.mem_ctrls.rank1.selfRefreshEnergy            0                       # Energy for self refresh per rank (pJ)
system.mem_ctrls.rank1.totalEnergy           14617875                       # Total energy per rank (pJ)
system.mem_ctrls.rank1.averagePower        615.256324                       # Core power per rank (mW)
system.mem_ctrls.rank1.totalIdleTime                0                       # Total Idle time Per DRAM Rank
system.mem_ctrls.rank1.memoryStateTime::IDLE            0                       # Time in different power states
system.mem_ctrls.rank1.memoryStateTime::REF       780000                       # Time in different power states
system.mem_ctrls.rank1.memoryStateTime::SREF            0                       # Time in different power states
system.mem_ctrls.rank1.memoryStateTime::PRE_PDN            0                       # Time in different power states
system.mem_ctrls.rank1.memoryStateTime::ACT     22979000                       # Time in different power states
system.mem_ctrls.rank1.memoryStateTime::ACT_PDN            0                       # Time in different power states
system.mem_ctrls.rank0.actEnergy               671160                       # Energy for activate commands per rank (pJ)
system.mem_ctrls.rank0.preEnergy               364320                       # Energy for precharge commands per rank (pJ)
system.mem_ctrls.rank0.readEnergy             1906380                       # Energy for read commands per rank (pJ)
system.mem_ctrls.rank0.writeEnergy             266220                       # Energy for write commands per rank (pJ)
system.mem_ctrls.rank0.refreshEnergy     1843920.000000                       # Energy for refresh commands per rank (pJ)
system.mem_ctrls.rank0.actBackEnergy         10648170                       # Energy for active background per rank (pJ)
system.mem_ctrls.rank0.preBackEnergy           156480                       # Energy for precharge background per rank (pJ)
system.mem_ctrls.rank0.actPowerDownEnergy            0                       # Energy for active power-down per rank (pJ)
system.mem_ctrls.rank0.prePowerDownEnergy            0                       # Energy for precharge power-down per rank (pJ)
system.mem_ctrls.rank0.selfRefreshEnergy            0                       # Energy for self refresh per rank (pJ)
system.mem_ctrls.rank0.totalEnergy           15856650                       # Total energy per rank (pJ)
system.mem_ctrls.rank0.averagePower        667.395513                       # Core power per rank (mW)
system.mem_ctrls.rank0.totalIdleTime                0                       # Total Idle time Per DRAM Rank
system.mem_ctrls.rank0.memoryStateTime::IDLE       309750                       # Time in different power states
system.mem_ctrls.rank0.memoryStateTime::REF       780000                       # Time in different power states
system.mem_ctrls.rank0.memoryStateTime::SREF            0                       # Time in different power states
system.mem_ctrls.rank0.memoryStateTime::PRE_PDN            0                       # Time in different power states
system.mem_ctrls.rank0.memoryStateTime::ACT     22669250                       # Time in different power states
system.mem_ctrls.rank0.memoryStateTime::ACT_PDN            0                       # Time in different power states
system.cpu1.pwrStateClkGateDist::samples            1                       # Distribution of time spent in the clock gated state
system.cpu1.pwrStateClkGateDist::mean        23759000                       # Distribution of time spent in the clock gated state
system.cpu1.pwrStateClkGateDist::1000-5e+10            1    100.00%    100.00% # Distribution of time spent in the clock gated state
system.cpu1.pwrStateClkGateDist::min_value     23759000                       # Distribution of time spent in the clock gated state
system.cpu1.pwrStateClkGateDist::max_value     23759000                       # Distribution of time spent in the clock gated state
system.cpu1.pwrStateClkGateDist::total              1                       # Distribution of time spent in the clock gated state
system.cpu1.pwrStateResidencyTicks::CLK_GATED     23759000                       # Cumulative time (in ticks) in various power states
system.cpu1.icache.pwrStateResidencyTicks::UNDEFINED     23759000                       # Cumulative time (in ticks) in various power states
system.cpu1.icache.blocked_cycles::no_mshrs            0                       # number of cycles access was blocked
system.cpu1.icache.blocked_cycles::no_targets            0                       # number of cycles access was blocked
system.cpu1.icache.blocked::no_mshrs                0                       # number of cycles access was blocked
system.cpu1.icache.blocked::no_targets              0                       # number of cycles access was blocked
system.cpu1.icache.avg_blocked_cycles::no_mshrs          nan                       # average number of cycles each access was blocked
system.cpu1.icache.avg_blocked_cycles::no_targets          nan                       # average number of cycles each access was blocked
system.cpu1.icache.replacements                     0                       # number of replacements
system.cpu1.icache.tags.pwrStateResidencyTicks::UNDEFINED     23759000                       # Cumulative time (in ticks) in various power states
system.cpu1.icache.tags.tagsinuse                  32                       # Cycle average of tags in use
system.cpu1.icache.tags.total_refs             707752                       # Total number of references to valid blocks.
system.cpu1.icache.tags.sampled_refs               32                       # Sample count of references to valid blocks.
system.cpu1.icache.tags.avg_refs         22117.250000                       # Average number of references to valid blocks.
system.cpu1.icache.tags.warmup_cycle                0                       # Cycle when the warmup percentage was hit.
system.cpu1.icache.tags.occ_blocks::.cpu1.inst           32                       # Average occupied blocks per requestor
system.cpu1.icache.tags.occ_percent::.cpu1.inst            1                       # Average percentage of cache occupancy
system.cpu1.icache.tags.occ_percent::total            1                       # Average percentage of cache occupancy
system.cpu1.icache.tags.occ_task_id_blocks::1024           32                       # Occupied blocks per task id
system.cpu1.icache.tags.age_task_id_blocks_1024::1           21                       # Occupied blocks per task id
system.cpu1.icache.tags.age_task_id_blocks_1024::3            1                       # Occupied blocks per task id
system.cpu1.icache.tags.age_task_id_blocks_1024::4           10                       # Occupied blocks per task id
system.cpu1.icache.tags.occ_task_id_percent::1024            1                       # Percentage of cache occupancy per task id
system.cpu1.icache.tags.tag_accesses                0                       # Number of tag accesses
system.cpu1.icache.tags.data_accesses               0                       # Number of data accesses
system.cpu1.dcache.pwrStateResidencyTicks::UNDEFINED     23759000                       # Cumulative time (in ticks) in various power states
system.cpu1.dcache.blocked_cycles::no_mshrs            0                       # number of cycles access was blocked
system.cpu1.dcache.blocked_cycles::no_targets            0                       # number of cycles access was blocked
system.cpu1.dcache.blocked::no_mshrs                0                       # number of cycles access was blocked
system.cpu1.dcache.blocked::no_targets              0                       # number of cycles access was blocked
system.cpu1.dcache.avg_blocked_cycles::no_mshrs          nan                       # average number of cycles each access was blocked
system.cpu1.dcache.avg_blocked_cycles::no_targets          nan                       # average number of cycles each access was blocked
system.cpu1.dcache.replacements                     0                       # number of replacements
system.cpu1.dcache.tags.pwrStateResidencyTicks::UNDEFINED     23759000                       # Cumulative time (in ticks) in various power states
system.cpu1.dcache.tags.tagsinuse           27.580412                       # Cycle average of tags in use
system.cpu1.dcache.tags.total_refs               1926                       # Total number of references to valid blocks.
system.cpu1.dcache.tags.sampled_refs               31                       # Sample count of references to valid blocks.
system.cpu1.dcache.tags.avg_refs            62.129032                       # Average number of references to valid blocks.
system.cpu1.dcache.tags.warmup_cycle                0                       # Cycle when the warmup percentage was hit.
system.cpu1.dcache.tags.occ_blocks::.cpu1.data    27.580412                       # Average occupied blocks per requestor
system.cpu1.dcache.tags.occ_percent::.cpu1.data     0.861888                       # Average percentage of cache occupancy
system.cpu1.dcache.tags.occ_percent::total     0.861888                       # Average percentage of cache occupancy
system.cpu1.dcache.tags.occ_task_id_blocks::1024           27                       # Occupied blocks per task id
system.cpu1.dcache.tags.age_task_id_blocks_1024::1           27                       # Occupied blocks per task id
system.cpu1.dcache.tags.occ_task_id_percent::1024     0.843750                       # Percentage of cache occupancy per task id
system.cpu1.dcache.tags.tag_accesses                0                       # Number of tag accesses
system.cpu1.dcache.tags.data_accesses               0                       # Number of data accesses
system.cpu_clk_domain.clock                       500                       # Clock period in ticks
system.tol2bus.pwrStateResidencyTicks::UNDEFINED     23759000                       # Cumulative time (in ticks) in various power states
system.tol2bus.trans_dist::ReadResp               598                       # Transaction distribution
system.tol2bus.trans_dist::WritebackDirty          190                       # Transaction distribution
system.tol2bus.trans_dist::WritebackClean          507                       # Transaction distribution
system.tol2bus.trans_dist::CleanEvict             818                       # Transaction distribution
system.tol2bus.trans_dist::HardPFReq               30                       # Transaction distribution
system.tol2bus.trans_dist::UpgradeReq               3                       # Transaction distribution
system.tol2bus.trans_dist::UpgradeResp              3                       # Transaction distribution
system.tol2bus.trans_dist::ReadExReq               28                       # Transaction distribution
system.tol2bus.trans_dist::ReadExResp              28                       # Transaction distribution
system.tol2bus.trans_dist::ReadCleanReq           364                       # Transaction distribution
system.tol2bus.trans_dist::ReadSharedReq          235                       # Transaction distribution
system.tol2bus.pkt_count_system.cpu0.icache.mem_side::system.l2.cpu_side         1090                       # Packet count per connected master and slave (bytes)
system.tol2bus.pkt_count_system.cpu0.dcache.mem_side::system.l2.cpu_side          793                       # Packet count per connected master and slave (bytes)
system.tol2bus.pkt_count::total                  1883                       # Packet count per connected master and slave (bytes)
system.tol2bus.pkt_size_system.cpu0.icache.mem_side::system.l2.cpu_side        46464                       # Cumulative packet size per connected master and slave (bytes)
system.tol2bus.pkt_size_system.cpu0.dcache.mem_side::system.l2.cpu_side        33600                       # Cumulative packet size per connected master and slave (bytes)
system.tol2bus.pkt_size::total                  80064                       # Cumulative packet size per connected master and slave (bytes)
system.tol2bus.snoops                             921                       # Total snoops (count)
system.tol2bus.snoopTraffic                      4608                       # Total snoop traffic (bytes)
system.tol2bus.snoop_fanout::samples             1549                       # Request fanout histogram
system.tol2bus.snoop_fanout::mean            0.324726                       # Request fanout histogram
system.tol2bus.snoop_fanout::stdev           0.491309                       # Request fanout histogram
system.tol2bus.snoop_fanout::underflows             0      0.00%      0.00% # Request fanout histogram
system.tol2bus.snoop_fanout::0                   1063     68.62%     68.62% # Request fanout histogram
system.tol2bus.snoop_fanout::1                    469     30.28%     98.90% # Request fanout histogram
system.tol2bus.snoop_fanout::2                     17      1.10%    100.00% # Request fanout histogram
system.tol2bus.snoop_fanout::3                      0      0.00%    100.00% # Request fanout histogram
system.tol2bus.snoop_fanout::4                      0      0.00%    100.00% # Request fanout histogram
system.tol2bus.snoop_fanout::5                      0      0.00%    100.00% # Request fanout histogram
system.tol2bus.snoop_fanout::6                      0      0.00%    100.00% # Request fanout histogram
system.tol2bus.snoop_fanout::7                      0      0.00%    100.00% # Request fanout histogram
system.tol2bus.snoop_fanout::8                      0      0.00%    100.00% # Request fanout histogram
system.tol2bus.snoop_fanout::overflows              0      0.00%    100.00% # Request fanout histogram
system.tol2bus.snoop_fanout::min_value              0                       # Request fanout histogram
system.tol2bus.snoop_fanout::max_value              2                       # Request fanout histogram
system.tol2bus.snoop_fanout::total               1549                       # Request fanout histogram
system.tol2bus.reqLayer0.occupancy            1254000                       # Layer occupancy (ticks)
system.tol2bus.reqLayer0.utilization              5.3                       # Layer utilization (%)
system.tol2bus.respLayer1.occupancy            396000                       # Layer occupancy (ticks)
system.tol2bus.respLayer1.utilization             1.7                       # Layer utilization (%)
system.tol2bus.respLayer0.occupancy            544500                       # Layer occupancy (ticks)
system.tol2bus.respLayer0.utilization             2.3                       # Layer utilization (%)

---------- End Simulation Statistics   ----------
