gem5 Simulator System.  http://gem5.org
gem5 is copyrighted software; use the --copyright option for details.

gem5 compiled Mar 27 2020 00:28:59
gem5 started Apr 28 2020 20:46:54
gem5 executing on muhammet, pid 25662
command line: /home/muhammet/Desktop/gem5/build/RISCV/gem5.fast -re --outdir=/home/muhammet/Desktop/gem5/results/bfs/gowalla.el/prefetch_TaggedPrefetcher_LIPRP --stdout-file=output.txt --stderr-file=error.txt /home/muhammet/Desktop/gem5/configs/example/my_se.py -c /home/muhammet/Desktop/gem5/gapbs/bfs -o '-f /home/muhammet/Desktop/gem5/gapbs/test/graphs/gowalla.el' --caches --l1d_size=2kB --l1i_size=2kB --cpu-type=DerivO3CPU -n 4 --mem-size=512MB --l2cache --l2_size=4kB --l2-hwp-type=TaggedPrefetcher --l2-replacement-policy=LIPRP --l1i_mshrs=4 --l1d_mshrs=4 --l2_mshrs=20 --l1i_write_buffers=8 --l1d_write_buffers=8 --l2_write_buffers=8

Warning: l2-hwp-type is set ( TaggedPrefetcher ), but the current l2 has a default Hardware Prefetcher of type <class 'm5.params.NullSimObject'> , using the specified by the flag option.
Global frequency set at 1000000000000 ticks per second
**** REAL SIMULATION ****
Read Time:           1.93572
Build Time:          0.19178
Graph has 196591 nodes and 1900654 directed edges for degree: 9
Source:                39292
    i                0.00044
   td         37     0.00002
   td      15618     0.00090
    e                0.00014
   bu      85571     0.00387
   bu      72745     0.00178
   bu      19085     0.00055
   bu       2989     0.00024
    c                0.00030
   td        450     0.00009
   td         74     0.00003
   td         20     0.00002
   td          1     0.00002
   td          0     0.00001
Trial Time:          0.00881
Source:               172091
    i                0.00044
   td          5     0.00002
   td         28     0.00002
   td        306     0.00004
   td      30162     0.00168
    e                0.00032
   bu      99792     0.00320
   bu      54088     0.00120
   bu      10392     0.00037
    c                0.00038
   td       1517     0.00025
   td        240     0.00005
   td         46     0.00002
   td         13     0.00002
   td          1     0.00002
   td          0     0.00001
Trial Time:          0.00847
Source:                 3424
    i                0.00044
   td          2     0.00001
   td       1538     0.00008
   td      35165     0.00217
    e                0.00036
   bu      95117     0.00308
   bu      51507     0.00120
   bu      11304     0.00040
   bu       1641     0.00022
    c                0.00028
   td        255     0.00006
   td         48     0.00002
   td         13     0.00002
   td          0     0.00001
Trial Time:          0.00876
Source:                53228
    i                0.00044
   td          7     0.00002
   td      14847     0.00094
    e                0.00013
   bu      83448     0.00396
   bu      74768     0.00184
   bu      19833     0.00056
   bu       3121     0.00024
    c                0.00030
   td        467     0.00009
   td         78     0.00003
   td         20     0.00002
   td          1     0.00002
   td          0     0.00001
Trial Time:          0.00899
Source:                54475
    i                0.00045
   td          9     0.00002
   td        134     0.00003
   td      21107     0.00141
    e                0.00022
   bu      94268     0.00352
   bu      64203     0.00146
   bu      14183     0.00045
   bu       2238     0.00022
    c                0.00029
   td        362     0.00007
   td         65     0.00002
   td         20     0.00002
   td          1     0.00001
   td          0     0.00001
Trial Time:          0.00861
Source:                80385
    i                0.00043
   td          3     0.00002
   td        196     0.00003
   td       4658     0.00028
    e                0.00007
   bu      64649     0.00437
   bu      88631     0.00228
   bu      31819     0.00074
   bu       5721     0.00028
    c                0.00033
   td        771     0.00014
   td        112     0.00003
   td         29     0.00002
   td          1     0.00002
   td          0     0.00001
Trial Time:          0.00945
Source:               182281
    i                0.00042
   td          1     0.00001
   td          2     0.00001
   td         74     0.00002
   td       3875     0.00034
    e                0.00005
   bu      73281     0.00419
   bu      86169     0.00212
   bu      27775     0.00066
   bu       4629     0.00026
    c                0.00032
   td        650     0.00012
   td        107     0.00003
   td         26     0.00002
   td          1     0.00001
   td          0     0.00001
Trial Time:          0.00904
Source:                46867
    i                0.00046
   td          7     0.00001
   td       4037     0.00024
    e                0.00004
   bu      65750     0.00436
   bu      91822     0.00230
   bu      29246     0.00071
   bu       4887     0.00027
    c                0.00032
   td        695     0.00013
   td        116     0.00003
   td         27     0.00002
   td          3     0.00002
   td          0     0.00001
Trial Time:          0.00931
Source:               101322
    i                0.00042
   td         32     0.00002
   td        281     0.00003
   td      11555     0.00057
    e                0.00012
   bu      73175     0.00399
   bu      84986     0.00194
   bu      22504     0.00058
   bu       3500     0.00025
    c                0.00030
   td        462     0.00009
   td         73     0.00003
   td         20     0.00002
   td          2     0.00001
   td          0     0.00001
Trial Time:          0.00880
Source:               167256
    i                0.00046
   td          2     0.00001
   td         11     0.00002
   td         90     0.00002
   td       7662     0.00048
    e                0.00009
   bu      79213     0.00400
   bu      81576     0.00194
   bu      23657     0.00060
   bu       3725     0.00025
    c                0.00031
   td        533     0.00010
   td         96     0.00003
   td         24     0.00002
   td          1     0.00001
   td          0     0.00001
Trial Time:          0.00879
Source:                34554
    i                0.00042
   td         23     0.00002
   td      15746     0.00097
    e                0.00015
   bu      84542     0.00389
   bu      73346     0.00180
   bu      19323     0.00055
   bu       3056     0.00024
    c                0.00030
   td        457     0.00009
   td         76     0.00003
   td         20     0.00002
   td          1     0.00002
   td          0     0.00001
Trial Time:          0.00890
Source:                21915
    i                0.00045
   td          2     0.00002
   td      10190     0.00044
    e                0.00008
   bu      70238     0.00411
   bu      87495     0.00204
   bu      24279     0.00062
   bu       3795     0.00025
    c                0.00031
   td        493     0.00010
   td         76     0.00003
   td         20     0.00002
   td          2     0.00002
   td          0     0.00002
Trial Time:          0.00888
Source:               180954
    i                0.00044
   td          7     0.00002
   td         20     0.00002
   td        225     0.00002
   td       7633     0.00045
    e                0.00009
   bu      74836     0.00411
   bu      83541     0.00202
   bu      25300     0.00062
   bu       4294     0.00026
    c                0.00031
   td        604     0.00011
   td        105     0.00003
   td         21     0.00002
   td          4     0.00002
   td          0     0.00001
Trial Time:          0.00899
Source:               159319
    i                0.00043
   td          4     0.00001
   td         39     0.00002
   td      15317     0.00096
    e                0.00014
   bu      84719     0.00392
   bu      73487     0.00180
   bu      19417     0.00055
   bu       3047     0.00024
    c                0.00030
   td        464     0.00009
   td         75     0.00003
   td         20     0.00002
   td          1     0.00002
   td          0     0.00001
Trial Time:          0.00895
Source:                19342
    i                0.00044
   td          2     0.00001
   td      10186     0.00044
    e                0.00009
   bu      70205     0.00410
   bu      87521     0.00204
   bu      24290     0.00062
   bu       3795     0.00025
    c                0.00031
   td        493     0.00010
   td         76     0.00003
   td         20     0.00002
   td          2     0.00001
   td          0     0.00001
Trial Time:          0.00886
Source:               156623
    i                0.00044
   td          1     0.00002
   td          3     0.00001
   td         33     0.00002
   td      20375     0.00126
    e                0.00018
   bu      87145     0.00370
   bu      68078     0.00165
   bu      17689     0.00051
   bu       2762     0.00024
    c                0.00030
   td        410     0.00008
   td         73     0.00003
   td         20     0.00002
   td          1     0.00002
   td          0     0.00002
Trial Time:          0.00891
Average Time:        0.00891
Exiting @ tick 2358789495000 because exiting with last active thread context
