
---------- Begin Simulation Statistics ----------
final_tick                               945834457500                       # Number of ticks from beginning of simulation (restored from checkpoints and never reset)
host_inst_rate                                  62670                       # Simulator instruction rate (inst/s)
host_mem_usage                                 702772                       # Number of bytes of host memory used
host_op_rate                                    62876                       # Simulator op (including micro ops) rate (op/s)
host_seconds                                 17644.59                       # Real time elapsed on the host
host_tick_rate                               53604774                       # Simulator tick rate (ticks/s)
sim_freq                                 1000000000000                       # Frequency of simulated ticks
sim_insts                                  1105787466                       # Number of instructions simulated
sim_ops                                    1109412828                       # Number of ops (including micro ops) simulated
sim_seconds                                  0.945834                       # Number of seconds simulated
sim_ticks                                945834457500                       # Number of ticks simulated
system.cpu0.branchPred.BTBCorrect                   0                       # Number of correct BTB predictions (this stat may not work properly.
system.cpu0.branchPred.BTBHitPct            87.121256                       # BTB Hit Percentage
system.cpu0.branchPred.BTBHits              139404468                       # Number of BTB hits
system.cpu0.branchPred.BTBLookups           160012004                       # Number of BTB lookups
system.cpu0.branchPred.RASInCorrect                 0                       # Number of incorrect RAS predictions.
system.cpu0.branchPred.condIncorrect         10996703                       # Number of conditional branches incorrect
system.cpu0.branchPred.condPredicted        220040066                       # Number of conditional branches predicted
system.cpu0.branchPred.indirectHits          18868970                       # Number of indirect target hits.
system.cpu0.branchPred.indirectLookups       19017189                       # Number of indirect predictor lookups.
system.cpu0.branchPred.indirectMisses          148219                       # Number of indirect misses.
system.cpu0.branchPred.lookups              280525290                       # Number of BP lookups
system.cpu0.branchPred.usedRAS                      0                       # Number of times the RAS was used to get a target.
system.cpu0.branchPredindirectMispredicted      1860147                       # Number of mispredicted indirect branches.
system.cpu0.commit.amos                       1811475                       # Number of atomic instructions committed
system.cpu0.commit.branchMispredicts          7607412                       # The number of times a branch was mispredicted
system.cpu0.commit.branches                 260677353                       # Number of branches committed
system.cpu0.commit.bw_lim_events             28677958                       # number cycles where commit BW limit reached
system.cpu0.commit.commitNonSpecStalls        5441389                       # The number of times commit has been forced to stall to communicate backwards
system.cpu0.commit.commitSquashedInsts       55079362                       # The number of squashed insts skipped by commit
system.cpu0.commit.committedInsts          1050721417                       # Number of instructions committed
system.cpu0.commit.committedOps            1052535409                       # Number of ops (including micro ops) committed
system.cpu0.commit.committed_per_cycle::samples   1744713031                       # Number of insts commited each cycle
system.cpu0.commit.committed_per_cycle::mean     0.603271                       # Number of insts commited each cycle
system.cpu0.commit.committed_per_cycle::stdev     1.369743                       # Number of insts commited each cycle
system.cpu0.commit.committed_per_cycle::underflows            0      0.00%      0.00% # Number of insts commited each cycle
system.cpu0.commit.committed_per_cycle::0   1239562230     71.05%     71.05% # Number of insts commited each cycle
system.cpu0.commit.committed_per_cycle::1    300828399     17.24%     88.29% # Number of insts commited each cycle
system.cpu0.commit.committed_per_cycle::2     69556484      3.99%     92.28% # Number of insts commited each cycle
system.cpu0.commit.committed_per_cycle::3     68099271      3.90%     96.18% # Number of insts commited each cycle
system.cpu0.commit.committed_per_cycle::4     22772070      1.31%     97.48% # Number of insts commited each cycle
system.cpu0.commit.committed_per_cycle::5      7299732      0.42%     97.90% # Number of insts commited each cycle
system.cpu0.commit.committed_per_cycle::6      4132584      0.24%     98.14% # Number of insts commited each cycle
system.cpu0.commit.committed_per_cycle::7      3784303      0.22%     98.36% # Number of insts commited each cycle
system.cpu0.commit.committed_per_cycle::8     28677958      1.64%    100.00% # Number of insts commited each cycle
system.cpu0.commit.committed_per_cycle::overflows            0      0.00%    100.00% # Number of insts commited each cycle
system.cpu0.commit.committed_per_cycle::min_value            0                       # Number of insts commited each cycle
system.cpu0.commit.committed_per_cycle::max_value            8                       # Number of insts commited each cycle
system.cpu0.commit.committed_per_cycle::total   1744713031                       # Number of insts commited each cycle
system.cpu0.commit.fp_insts                        50                       # Number of committed floating point instructions.
system.cpu0.commit.function_calls            20856770                       # Number of function calls committed.
system.cpu0.commit.int_insts               1015913346                       # Number of committed integer instructions.
system.cpu0.commit.loads                    326213867                       # Number of loads committed
system.cpu0.commit.membars                    3625353                       # Number of memory barriers committed
system.cpu0.commit.op_class_0::No_OpClass      3625359      0.34%      0.34% # Class of committed instruction
system.cpu0.commit.op_class_0::IntAlu       583891829     55.47%     55.82% # Class of committed instruction
system.cpu0.commit.op_class_0::IntMult        8031605      0.76%     56.58% # Class of committed instruction
system.cpu0.commit.op_class_0::IntDiv         1811037      0.17%     56.75% # Class of committed instruction
system.cpu0.commit.op_class_0::FloatAdd             0      0.00%     56.75% # Class of committed instruction
system.cpu0.commit.op_class_0::FloatCmp             4      0.00%     56.75% # Class of committed instruction
system.cpu0.commit.op_class_0::FloatCvt            12      0.00%     56.75% # Class of committed instruction
system.cpu0.commit.op_class_0::FloatMult            0      0.00%     56.75% # Class of committed instruction
system.cpu0.commit.op_class_0::FloatMultAcc            0      0.00%     56.75% # Class of committed instruction
system.cpu0.commit.op_class_0::FloatDiv             2      0.00%     56.75% # Class of committed instruction
system.cpu0.commit.op_class_0::FloatMisc            4      0.00%     56.75% # Class of committed instruction
system.cpu0.commit.op_class_0::FloatSqrt            0      0.00%     56.75% # Class of committed instruction
system.cpu0.commit.op_class_0::SimdAdd              0      0.00%     56.75% # Class of committed instruction
system.cpu0.commit.op_class_0::SimdAddAcc            0      0.00%     56.75% # Class of committed instruction
system.cpu0.commit.op_class_0::SimdAlu              0      0.00%     56.75% # Class of committed instruction
system.cpu0.commit.op_class_0::SimdCmp              0      0.00%     56.75% # Class of committed instruction
system.cpu0.commit.op_class_0::SimdCvt              0      0.00%     56.75% # Class of committed instruction
system.cpu0.commit.op_class_0::SimdMisc             0      0.00%     56.75% # Class of committed instruction
system.cpu0.commit.op_class_0::SimdMult             0      0.00%     56.75% # Class of committed instruction
system.cpu0.commit.op_class_0::SimdMultAcc            0      0.00%     56.75% # Class of committed instruction
system.cpu0.commit.op_class_0::SimdShift            0      0.00%     56.75% # Class of committed instruction
system.cpu0.commit.op_class_0::SimdShiftAcc            0      0.00%     56.75% # Class of committed instruction
system.cpu0.commit.op_class_0::SimdDiv              0      0.00%     56.75% # Class of committed instruction
system.cpu0.commit.op_class_0::SimdSqrt             0      0.00%     56.75% # Class of committed instruction
system.cpu0.commit.op_class_0::SimdFloatAdd            0      0.00%     56.75% # Class of committed instruction
system.cpu0.commit.op_class_0::SimdFloatAlu            0      0.00%     56.75% # Class of committed instruction
system.cpu0.commit.op_class_0::SimdFloatCmp            0      0.00%     56.75% # Class of committed instruction
system.cpu0.commit.op_class_0::SimdFloatCvt            0      0.00%     56.75% # Class of committed instruction
system.cpu0.commit.op_class_0::SimdFloatDiv            0      0.00%     56.75% # Class of committed instruction
system.cpu0.commit.op_class_0::SimdFloatMisc            0      0.00%     56.75% # Class of committed instruction
system.cpu0.commit.op_class_0::SimdFloatMult            0      0.00%     56.75% # Class of committed instruction
system.cpu0.commit.op_class_0::SimdFloatMultAcc            0      0.00%     56.75% # Class of committed instruction
system.cpu0.commit.op_class_0::SimdFloatSqrt            0      0.00%     56.75% # Class of committed instruction
system.cpu0.commit.op_class_0::SimdReduceAdd            0      0.00%     56.75% # Class of committed instruction
system.cpu0.commit.op_class_0::SimdReduceAlu            0      0.00%     56.75% # Class of committed instruction
system.cpu0.commit.op_class_0::SimdReduceCmp            0      0.00%     56.75% # Class of committed instruction
system.cpu0.commit.op_class_0::SimdFloatReduceAdd            0      0.00%     56.75% # Class of committed instruction
system.cpu0.commit.op_class_0::SimdFloatReduceCmp            0      0.00%     56.75% # Class of committed instruction
system.cpu0.commit.op_class_0::SimdAes              0      0.00%     56.75% # Class of committed instruction
system.cpu0.commit.op_class_0::SimdAesMix            0      0.00%     56.75% # Class of committed instruction
system.cpu0.commit.op_class_0::SimdSha1Hash            0      0.00%     56.75% # Class of committed instruction
system.cpu0.commit.op_class_0::SimdSha1Hash2            0      0.00%     56.75% # Class of committed instruction
system.cpu0.commit.op_class_0::SimdSha256Hash            0      0.00%     56.75% # Class of committed instruction
system.cpu0.commit.op_class_0::SimdSha256Hash2            0      0.00%     56.75% # Class of committed instruction
system.cpu0.commit.op_class_0::SimdShaSigma2            0      0.00%     56.75% # Class of committed instruction
system.cpu0.commit.op_class_0::SimdShaSigma3            0      0.00%     56.75% # Class of committed instruction
system.cpu0.commit.op_class_0::SimdPredAlu            0      0.00%     56.75% # Class of committed instruction
system.cpu0.commit.op_class_0::MemRead      328025334     31.17%     87.92% # Class of committed instruction
system.cpu0.commit.op_class_0::MemWrite     127150195     12.08%    100.00% # Class of committed instruction
system.cpu0.commit.op_class_0::FloatMemRead            8      0.00%    100.00% # Class of committed instruction
system.cpu0.commit.op_class_0::FloatMemWrite           20      0.00%    100.00% # Class of committed instruction
system.cpu0.commit.op_class_0::IprAccess            0      0.00%    100.00% # Class of committed instruction
system.cpu0.commit.op_class_0::InstPrefetch            0      0.00%    100.00% # Class of committed instruction
system.cpu0.commit.op_class_0::total       1052535409                       # Class of committed instruction
system.cpu0.commit.refs                     455175557                       # Number of memory references committed
system.cpu0.commit.swp_count                        0                       # Number of s/w prefetches committed
system.cpu0.commit.vec_insts                        0                       # Number of committed Vector instructions.
system.cpu0.committedInsts                 1050721417                       # Number of Instructions Simulated
system.cpu0.committedOps                   1052535409                       # Number of Ops (including micro ops) Simulated
system.cpu0.cpi                              1.795650                       # CPI: Cycles Per Instruction
system.cpu0.cpi_total                        1.795650                       # CPI: Total CPI of All Threads
system.cpu0.decode.BlockedCycles            360275391                       # Number of cycles decode is blocked
system.cpu0.decode.BranchMispred              3397150                       # Number of times decode detected a branch misprediction
system.cpu0.decode.BranchResolved           137922599                       # Number of times decode resolved a branch
system.cpu0.decode.DecodedInsts            1126328558                       # Number of instructions handled by decode
system.cpu0.decode.IdleCycles               621303082                       # Number of cycles decode is idle
system.cpu0.decode.RunCycles                762439941                       # Number of cycles decode is running
system.cpu0.decode.SquashCycles               7615757                       # Number of cycles decode is squashing
system.cpu0.decode.SquashedInsts             12833868                       # Number of squashed instructions handled by decode
system.cpu0.decode.UnblockCycles              5366552                       # Number of cycles decode is unblocking
system.cpu0.dtb.accesses                            0                       # DTB accesses
system.cpu0.dtb.hits                                0                       # DTB hits
system.cpu0.dtb.misses                              0                       # DTB misses
system.cpu0.dtb.read_accesses                       0                       # DTB read accesses
system.cpu0.dtb.read_hits                           0                       # DTB read hits
system.cpu0.dtb.read_misses                         0                       # DTB read misses
system.cpu0.dtb.write_accesses                      0                       # DTB write accesses
system.cpu0.dtb.write_hits                          0                       # DTB write hits
system.cpu0.dtb.write_misses                        0                       # DTB write misses
system.cpu0.fetch.Branches                  280525290                       # Number of branches that fetch encountered
system.cpu0.fetch.CacheLines                185919227                       # Number of cache lines fetched
system.cpu0.fetch.Cycles                   1134736773                       # Number of cycles fetch has run and was not squashing or blocked
system.cpu0.fetch.IcacheSquashes              4198518                       # Number of outstanding Icache misses that were squashed
system.cpu0.fetch.IcacheWaitRetryStallCycles           81                       # Number of stall cycles due to full MSHR
system.cpu0.fetch.Insts                    1147961494                       # Number of instructions fetch has processed
system.cpu0.fetch.MiscStallCycles                  10                       # Number of cycles fetch has spent waiting on interrupts, or bad addresses, or out of MSHRs
system.cpu0.fetch.PendingTrapStallCycles           15                       # Number of stall cycles due to pending traps
system.cpu0.fetch.SquashCycles               22010100                       # Number of cycles fetch has spent squashing
system.cpu0.fetch.branchRate                 0.148683                       # Number of branch fetches per cycle
system.cpu0.fetch.icacheStallCycles         611258794                       # Number of cycles fetch is stalled on an Icache miss
system.cpu0.fetch.predictedBranches         158273438                       # Number of branches that fetch has predicted taken
system.cpu0.fetch.rate                       0.608440                       # Number of inst fetches per cycle
system.cpu0.fetch.rateDist::samples        1757000723                       # Number of instructions fetched each cycle (Total)
system.cpu0.fetch.rateDist::mean             0.654397                       # Number of instructions fetched each cycle (Total)
system.cpu0.fetch.rateDist::stdev            0.922023                       # Number of instructions fetched each cycle (Total)
system.cpu0.fetch.rateDist::underflows              0      0.00%      0.00% # Number of instructions fetched each cycle (Total)
system.cpu0.fetch.rateDist::0               958237411     54.54%     54.54% # Number of instructions fetched each cycle (Total)
system.cpu0.fetch.rateDist::1               586315169     33.37%     87.91% # Number of instructions fetched each cycle (Total)
system.cpu0.fetch.rateDist::2               109196104      6.21%     94.12% # Number of instructions fetched each cycle (Total)
system.cpu0.fetch.rateDist::3                79302665      4.51%     98.64% # Number of instructions fetched each cycle (Total)
system.cpu0.fetch.rateDist::4                18704727      1.06%     99.70% # Number of instructions fetched each cycle (Total)
system.cpu0.fetch.rateDist::5                 2977024      0.17%     99.87% # Number of instructions fetched each cycle (Total)
system.cpu0.fetch.rateDist::6                  341409      0.02%     99.89% # Number of instructions fetched each cycle (Total)
system.cpu0.fetch.rateDist::7                     687      0.00%     99.89% # Number of instructions fetched each cycle (Total)
system.cpu0.fetch.rateDist::8                 1925527      0.11%    100.00% # Number of instructions fetched each cycle (Total)
system.cpu0.fetch.rateDist::overflows               0      0.00%    100.00% # Number of instructions fetched each cycle (Total)
system.cpu0.fetch.rateDist::min_value               0                       # Number of instructions fetched each cycle (Total)
system.cpu0.fetch.rateDist::max_value               8                       # Number of instructions fetched each cycle (Total)
system.cpu0.fetch.rateDist::total          1757000723                       # Number of instructions fetched each cycle (Total)
system.cpu0.fp_regfile_reads                       53                       # number of floating regfile reads
system.cpu0.fp_regfile_writes                      27                       # number of floating regfile writes
system.cpu0.idleCycles                      129727695                       # Total number of cycles that the CPU has spent unscheduled due to idling
system.cpu0.iew.branchMispredicts             7755719                       # Number of branch mispredicts detected at execute
system.cpu0.iew.exec_branches               267719378                       # Number of branches executed
system.cpu0.iew.exec_nop                            0                       # number of nop insts executed
system.cpu0.iew.exec_rate                    0.582218                       # Inst execution rate
system.cpu0.iew.exec_refs                   482894045                       # number of memory reference insts executed
system.cpu0.iew.exec_stores                 133280958                       # Number of stores executed
system.cpu0.iew.exec_swp                            0                       # number of swp insts executed
system.cpu0.iew.iewBlockCycles              294969472                       # Number of cycles IEW is blocking
system.cpu0.iew.iewDispLoadInsts            349510184                       # Number of dispatched load instructions
system.cpu0.iew.iewDispNonSpecInsts           1816628                       # Number of dispatched non-speculative instructions
system.cpu0.iew.iewDispSquashedInsts          3715482                       # Number of squashed instructions skipped by dispatch
system.cpu0.iew.iewDispStoreInsts           134432849                       # Number of dispatched store instructions
system.cpu0.iew.iewDispatchedInsts         1107596625                       # Number of instructions dispatched to IQ
system.cpu0.iew.iewExecLoadInsts            349613087                       # Number of load instructions executed
system.cpu0.iew.iewExecSquashedInsts          6680648                       # Number of squashed instructions skipped in execute
system.cpu0.iew.iewExecutedInsts           1098486462                       # Number of executed instructions
system.cpu0.iew.iewIQFullEvents               1626343                       # Number of times the IQ has become full, causing a stall
system.cpu0.iew.iewIdleCycles                       0                       # Number of cycles IEW is idle
system.cpu0.iew.iewLSQFullEvents              4525127                       # Number of times the LSQ has become full, causing a stall
system.cpu0.iew.iewSquashCycles               7615757                       # Number of cycles IEW is squashing
system.cpu0.iew.iewUnblockCycles              8165189                       # Number of cycles IEW is unblocking
system.cpu0.iew.lsq.thread0.blockedLoads            0                       # Number of blocked loads due to partial load-store forwarding
system.cpu0.iew.lsq.thread0.cacheBlocked       105919                       # Number of times an access to memory failed due to the cache being blocked
system.cpu0.iew.lsq.thread0.forwLoads        17413321                       # Number of loads that had data forwarded from stores
system.cpu0.iew.lsq.thread0.ignoredResponses        50956                       # Number of memory responses ignored because the instruction is squashed
system.cpu0.iew.lsq.thread0.invAddrLoads            0                       # Number of loads ignored due to an invalid address
system.cpu0.iew.lsq.thread0.invAddrSwpfs            0                       # Number of software prefetches ignored due to an invalid address
system.cpu0.iew.lsq.thread0.memOrderViolation         8442                       # Number of memory ordering violations
system.cpu0.iew.lsq.thread0.rescheduledLoads      4337627                       # Number of loads that were rescheduled
system.cpu0.iew.lsq.thread0.squashedLoads     23296317                       # Number of loads squashed
system.cpu0.iew.lsq.thread0.squashedStores      5471159                       # Number of stores squashed
system.cpu0.iew.memOrderViolationEvents          8442                       # Number of memory order violations
system.cpu0.iew.predictedNotTakenIncorrect      1189911                       # Number of branches that were predicted not taken incorrectly
system.cpu0.iew.predictedTakenIncorrect       6565808                       # Number of branches that were predicted taken incorrectly
system.cpu0.iew.wb_consumers                498821322                       # num instructions consuming a value
system.cpu0.iew.wb_count                   1088778685                       # cumulative count of insts written-back
system.cpu0.iew.wb_fanout                    0.837089                       # average fanout of values written-back
system.cpu0.iew.wb_producers                417557738                       # num instructions producing a value
system.cpu0.iew.wb_rate                      0.577072                       # insts written-back per cycle
system.cpu0.iew.wb_sent                    1088890141                       # cumulative count of insts sent to commit
system.cpu0.int_regfile_reads              1342908317                       # number of integer regfile reads
system.cpu0.int_regfile_writes              695756348                       # number of integer regfile writes
system.cpu0.ipc                              0.556901                       # IPC: Instructions Per Cycle
system.cpu0.ipc_total                        0.556901                       # IPC: Total IPC of All Threads
system.cpu0.iq.FU_type_0::No_OpClass          3626836      0.33%      0.33% # Type of FU issued
system.cpu0.iq.FU_type_0::IntAlu            605756755     54.81%     55.14% # Type of FU issued
system.cpu0.iq.FU_type_0::IntMult             8140591      0.74%     55.88% # Type of FU issued
system.cpu0.iq.FU_type_0::IntDiv              1811525      0.16%     56.04% # Type of FU issued
system.cpu0.iq.FU_type_0::FloatAdd                  0      0.00%     56.04% # Type of FU issued
system.cpu0.iq.FU_type_0::FloatCmp                  4      0.00%     56.04% # Type of FU issued
system.cpu0.iq.FU_type_0::FloatCvt                 12      0.00%     56.04% # Type of FU issued
system.cpu0.iq.FU_type_0::FloatMult                 0      0.00%     56.04% # Type of FU issued
system.cpu0.iq.FU_type_0::FloatMultAcc              3      0.00%     56.04% # Type of FU issued
system.cpu0.iq.FU_type_0::FloatDiv                  2      0.00%     56.04% # Type of FU issued
system.cpu0.iq.FU_type_0::FloatMisc                 4      0.00%     56.04% # Type of FU issued
system.cpu0.iq.FU_type_0::FloatSqrt                 0      0.00%     56.04% # Type of FU issued
system.cpu0.iq.FU_type_0::SimdAdd                   0      0.00%     56.04% # Type of FU issued
system.cpu0.iq.FU_type_0::SimdAddAcc                0      0.00%     56.04% # Type of FU issued
system.cpu0.iq.FU_type_0::SimdAlu                   0      0.00%     56.04% # Type of FU issued
system.cpu0.iq.FU_type_0::SimdCmp                   0      0.00%     56.04% # Type of FU issued
system.cpu0.iq.FU_type_0::SimdCvt                   0      0.00%     56.04% # Type of FU issued
system.cpu0.iq.FU_type_0::SimdMisc                  0      0.00%     56.04% # Type of FU issued
system.cpu0.iq.FU_type_0::SimdMult                  0      0.00%     56.04% # Type of FU issued
system.cpu0.iq.FU_type_0::SimdMultAcc               0      0.00%     56.04% # Type of FU issued
system.cpu0.iq.FU_type_0::SimdShift                 0      0.00%     56.04% # Type of FU issued
system.cpu0.iq.FU_type_0::SimdShiftAcc              0      0.00%     56.04% # Type of FU issued
system.cpu0.iq.FU_type_0::SimdDiv                   0      0.00%     56.04% # Type of FU issued
system.cpu0.iq.FU_type_0::SimdSqrt                  0      0.00%     56.04% # Type of FU issued
system.cpu0.iq.FU_type_0::SimdFloatAdd              0      0.00%     56.04% # Type of FU issued
system.cpu0.iq.FU_type_0::SimdFloatAlu              0      0.00%     56.04% # Type of FU issued
system.cpu0.iq.FU_type_0::SimdFloatCmp              0      0.00%     56.04% # Type of FU issued
system.cpu0.iq.FU_type_0::SimdFloatCvt              0      0.00%     56.04% # Type of FU issued
system.cpu0.iq.FU_type_0::SimdFloatDiv              0      0.00%     56.04% # Type of FU issued
system.cpu0.iq.FU_type_0::SimdFloatMisc             0      0.00%     56.04% # Type of FU issued
system.cpu0.iq.FU_type_0::SimdFloatMult             0      0.00%     56.04% # Type of FU issued
system.cpu0.iq.FU_type_0::SimdFloatMultAcc            0      0.00%     56.04% # Type of FU issued
system.cpu0.iq.FU_type_0::SimdFloatSqrt             0      0.00%     56.04% # Type of FU issued
system.cpu0.iq.FU_type_0::SimdReduceAdd             0      0.00%     56.04% # Type of FU issued
system.cpu0.iq.FU_type_0::SimdReduceAlu             0      0.00%     56.04% # Type of FU issued
system.cpu0.iq.FU_type_0::SimdReduceCmp             0      0.00%     56.04% # Type of FU issued
system.cpu0.iq.FU_type_0::SimdFloatReduceAdd            0      0.00%     56.04% # Type of FU issued
system.cpu0.iq.FU_type_0::SimdFloatReduceCmp            0      0.00%     56.04% # Type of FU issued
system.cpu0.iq.FU_type_0::SimdAes                   0      0.00%     56.04% # Type of FU issued
system.cpu0.iq.FU_type_0::SimdAesMix                0      0.00%     56.04% # Type of FU issued
system.cpu0.iq.FU_type_0::SimdSha1Hash              0      0.00%     56.04% # Type of FU issued
system.cpu0.iq.FU_type_0::SimdSha1Hash2             0      0.00%     56.04% # Type of FU issued
system.cpu0.iq.FU_type_0::SimdSha256Hash            0      0.00%     56.04% # Type of FU issued
system.cpu0.iq.FU_type_0::SimdSha256Hash2            0      0.00%     56.04% # Type of FU issued
system.cpu0.iq.FU_type_0::SimdShaSigma2             0      0.00%     56.04% # Type of FU issued
system.cpu0.iq.FU_type_0::SimdShaSigma3             0      0.00%     56.04% # Type of FU issued
system.cpu0.iq.FU_type_0::SimdPredAlu               0      0.00%     56.04% # Type of FU issued
system.cpu0.iq.FU_type_0::MemRead           353954506     32.03%     88.07% # Type of FU issued
system.cpu0.iq.FU_type_0::MemWrite          131876841     11.93%    100.00% # Type of FU issued
system.cpu0.iq.FU_type_0::FloatMemRead             11      0.00%    100.00% # Type of FU issued
system.cpu0.iq.FU_type_0::FloatMemWrite            20      0.00%    100.00% # Type of FU issued
system.cpu0.iq.FU_type_0::IprAccess                 0      0.00%    100.00% # Type of FU issued
system.cpu0.iq.FU_type_0::InstPrefetch              0      0.00%    100.00% # Type of FU issued
system.cpu0.iq.FU_type_0::total            1105167110                       # Type of FU issued
system.cpu0.iq.fp_alu_accesses                     60                       # Number of floating point alu accesses
system.cpu0.iq.fp_inst_queue_reads                116                       # Number of floating instruction queue reads
system.cpu0.iq.fp_inst_queue_wakeup_accesses           55                       # Number of floating instruction queue wakeup accesses
system.cpu0.iq.fp_inst_queue_writes                62                       # Number of floating instruction queue writes
system.cpu0.iq.fu_busy_cnt                    2188265                       # FU busy when requested
system.cpu0.iq.fu_busy_rate                  0.001980                       # FU busy rate (busy events/executed inst)
system.cpu0.iq.fu_full::No_OpClass                  0      0.00%      0.00% # attempts to use FU when none available
system.cpu0.iq.fu_full::IntAlu                 358927     16.40%     16.40% # attempts to use FU when none available
system.cpu0.iq.fu_full::IntMult                    19      0.00%     16.40% # attempts to use FU when none available
system.cpu0.iq.fu_full::IntDiv                      0      0.00%     16.40% # attempts to use FU when none available
system.cpu0.iq.fu_full::FloatAdd                    0      0.00%     16.40% # attempts to use FU when none available
system.cpu0.iq.fu_full::FloatCmp                    0      0.00%     16.40% # attempts to use FU when none available
system.cpu0.iq.fu_full::FloatCvt                    0      0.00%     16.40% # attempts to use FU when none available
system.cpu0.iq.fu_full::FloatMult                   0      0.00%     16.40% # attempts to use FU when none available
system.cpu0.iq.fu_full::FloatMultAcc                0      0.00%     16.40% # attempts to use FU when none available
system.cpu0.iq.fu_full::FloatDiv                    0      0.00%     16.40% # attempts to use FU when none available
system.cpu0.iq.fu_full::FloatMisc                   0      0.00%     16.40% # attempts to use FU when none available
system.cpu0.iq.fu_full::FloatSqrt                   0      0.00%     16.40% # attempts to use FU when none available
system.cpu0.iq.fu_full::SimdAdd                     0      0.00%     16.40% # attempts to use FU when none available
system.cpu0.iq.fu_full::SimdAddAcc                  0      0.00%     16.40% # attempts to use FU when none available
system.cpu0.iq.fu_full::SimdAlu                     0      0.00%     16.40% # attempts to use FU when none available
system.cpu0.iq.fu_full::SimdCmp                     0      0.00%     16.40% # attempts to use FU when none available
system.cpu0.iq.fu_full::SimdCvt                     0      0.00%     16.40% # attempts to use FU when none available
system.cpu0.iq.fu_full::SimdMisc                    0      0.00%     16.40% # attempts to use FU when none available
system.cpu0.iq.fu_full::SimdMult                    0      0.00%     16.40% # attempts to use FU when none available
system.cpu0.iq.fu_full::SimdMultAcc                 0      0.00%     16.40% # attempts to use FU when none available
system.cpu0.iq.fu_full::SimdShift                   0      0.00%     16.40% # attempts to use FU when none available
system.cpu0.iq.fu_full::SimdShiftAcc                0      0.00%     16.40% # attempts to use FU when none available
system.cpu0.iq.fu_full::SimdDiv                     0      0.00%     16.40% # attempts to use FU when none available
system.cpu0.iq.fu_full::SimdSqrt                    0      0.00%     16.40% # attempts to use FU when none available
system.cpu0.iq.fu_full::SimdFloatAdd                0      0.00%     16.40% # attempts to use FU when none available
system.cpu0.iq.fu_full::SimdFloatAlu                0      0.00%     16.40% # attempts to use FU when none available
system.cpu0.iq.fu_full::SimdFloatCmp                0      0.00%     16.40% # attempts to use FU when none available
system.cpu0.iq.fu_full::SimdFloatCvt                0      0.00%     16.40% # attempts to use FU when none available
system.cpu0.iq.fu_full::SimdFloatDiv                0      0.00%     16.40% # attempts to use FU when none available
system.cpu0.iq.fu_full::SimdFloatMisc               0      0.00%     16.40% # attempts to use FU when none available
system.cpu0.iq.fu_full::SimdFloatMult               0      0.00%     16.40% # attempts to use FU when none available
system.cpu0.iq.fu_full::SimdFloatMultAcc            0      0.00%     16.40% # attempts to use FU when none available
system.cpu0.iq.fu_full::SimdFloatSqrt               0      0.00%     16.40% # attempts to use FU when none available
system.cpu0.iq.fu_full::SimdReduceAdd               0      0.00%     16.40% # attempts to use FU when none available
system.cpu0.iq.fu_full::SimdReduceAlu               0      0.00%     16.40% # attempts to use FU when none available
system.cpu0.iq.fu_full::SimdReduceCmp               0      0.00%     16.40% # attempts to use FU when none available
system.cpu0.iq.fu_full::SimdFloatReduceAdd            0      0.00%     16.40% # attempts to use FU when none available
system.cpu0.iq.fu_full::SimdFloatReduceCmp            0      0.00%     16.40% # attempts to use FU when none available
system.cpu0.iq.fu_full::SimdAes                     0      0.00%     16.40% # attempts to use FU when none available
system.cpu0.iq.fu_full::SimdAesMix                  0      0.00%     16.40% # attempts to use FU when none available
system.cpu0.iq.fu_full::SimdSha1Hash                0      0.00%     16.40% # attempts to use FU when none available
system.cpu0.iq.fu_full::SimdSha1Hash2               0      0.00%     16.40% # attempts to use FU when none available
system.cpu0.iq.fu_full::SimdSha256Hash              0      0.00%     16.40% # attempts to use FU when none available
system.cpu0.iq.fu_full::SimdSha256Hash2             0      0.00%     16.40% # attempts to use FU when none available
system.cpu0.iq.fu_full::SimdShaSigma2               0      0.00%     16.40% # attempts to use FU when none available
system.cpu0.iq.fu_full::SimdShaSigma3               0      0.00%     16.40% # attempts to use FU when none available
system.cpu0.iq.fu_full::SimdPredAlu                 0      0.00%     16.40% # attempts to use FU when none available
system.cpu0.iq.fu_full::MemRead               1609062     73.53%     89.93% # attempts to use FU when none available
system.cpu0.iq.fu_full::MemWrite               220253     10.07%    100.00% # attempts to use FU when none available
system.cpu0.iq.fu_full::FloatMemRead                0      0.00%    100.00% # attempts to use FU when none available
system.cpu0.iq.fu_full::FloatMemWrite               4      0.00%    100.00% # attempts to use FU when none available
system.cpu0.iq.fu_full::IprAccess                   0      0.00%    100.00% # attempts to use FU when none available
system.cpu0.iq.fu_full::InstPrefetch                0      0.00%    100.00% # attempts to use FU when none available
system.cpu0.iq.int_alu_accesses            1103728479                       # Number of integer alu accesses
system.cpu0.iq.int_inst_queue_reads        3969643595                       # Number of integer instruction queue reads
system.cpu0.iq.int_inst_queue_wakeup_accesses   1088778630                       # Number of integer instruction queue wakeup accesses
system.cpu0.iq.int_inst_queue_writes       1162665433                       # Number of integer instruction queue writes
system.cpu0.iq.iqInstsAdded                1102153516                       # Number of instructions added to the IQ (excludes non-spec)
system.cpu0.iq.iqInstsIssued               1105167110                       # Number of instructions issued
system.cpu0.iq.iqNonSpecInstsAdded            5443109                       # Number of non-speculative instructions added to the IQ
system.cpu0.iq.iqSquashedInstsExamined       55061213                       # Number of squashed instructions iterated over during squash; mainly for profiling
system.cpu0.iq.iqSquashedInstsIssued           120503                       # Number of squashed instructions issued
system.cpu0.iq.iqSquashedNonSpecRemoved          1720                       # Number of squashed non-spec instructions that were removed
system.cpu0.iq.iqSquashedOperandsExamined     18537869                       # Number of squashed operands that are examined and possibly removed from graph
system.cpu0.iq.issued_per_cycle::samples   1757000723                       # Number of insts issued each cycle
system.cpu0.iq.issued_per_cycle::mean        0.629008                       # Number of insts issued each cycle
system.cpu0.iq.issued_per_cycle::stdev       0.858877                       # Number of insts issued each cycle
system.cpu0.iq.issued_per_cycle::underflows            0      0.00%      0.00% # Number of insts issued each cycle
system.cpu0.iq.issued_per_cycle::0          990073666     56.35%     56.35% # Number of insts issued each cycle
system.cpu0.iq.issued_per_cycle::1          513353422     29.22%     85.57% # Number of insts issued each cycle
system.cpu0.iq.issued_per_cycle::2          183316968     10.43%     96.00% # Number of insts issued each cycle
system.cpu0.iq.issued_per_cycle::3           59353926      3.38%     99.38% # Number of insts issued each cycle
system.cpu0.iq.issued_per_cycle::4            8950814      0.51%     99.89% # Number of insts issued each cycle
system.cpu0.iq.issued_per_cycle::5             899103      0.05%     99.94% # Number of insts issued each cycle
system.cpu0.iq.issued_per_cycle::6             709294      0.04%     99.98% # Number of insts issued each cycle
system.cpu0.iq.issued_per_cycle::7             184801      0.01%     99.99% # Number of insts issued each cycle
system.cpu0.iq.issued_per_cycle::8             158729      0.01%    100.00% # Number of insts issued each cycle
system.cpu0.iq.issued_per_cycle::overflows            0      0.00%    100.00% # Number of insts issued each cycle
system.cpu0.iq.issued_per_cycle::min_value            0                       # Number of insts issued each cycle
system.cpu0.iq.issued_per_cycle::max_value            8                       # Number of insts issued each cycle
system.cpu0.iq.issued_per_cycle::total     1757000723                       # Number of insts issued each cycle
system.cpu0.iq.rate                          0.585758                       # Inst issue rate
system.cpu0.iq.vec_alu_accesses                     0                       # Number of vector alu accesses
system.cpu0.iq.vec_inst_queue_reads                 0                       # Number of vector instruction queue reads
system.cpu0.iq.vec_inst_queue_wakeup_accesses            0                       # Number of vector instruction queue wakeup accesses
system.cpu0.iq.vec_inst_queue_writes                0                       # Number of vector instruction queue writes
system.cpu0.itb.accesses                            0                       # DTB accesses
system.cpu0.itb.hits                                0                       # DTB hits
system.cpu0.itb.misses                              0                       # DTB misses
system.cpu0.itb.read_accesses                       0                       # DTB read accesses
system.cpu0.itb.read_hits                           0                       # DTB read hits
system.cpu0.itb.read_misses                         0                       # DTB read misses
system.cpu0.itb.write_accesses                      0                       # DTB write accesses
system.cpu0.itb.write_hits                          0                       # DTB write hits
system.cpu0.itb.write_misses                        0                       # DTB write misses
system.cpu0.memDep0.conflictingLoads         17394350                       # Number of conflicting loads.
system.cpu0.memDep0.conflictingStores         4263485                       # Number of conflicting stores.
system.cpu0.memDep0.insertedLoads           349510184                       # Number of loads inserted to the mem dependence unit.
system.cpu0.memDep0.insertedStores          134432849                       # Number of stores inserted to the mem dependence unit.
system.cpu0.misc_regfile_reads                   1503                       # number of misc regfile reads
system.cpu0.misc_regfile_writes                    22                       # number of misc regfile writes
system.cpu0.numCycles                      1886728418                       # number of cpu cycles simulated
system.cpu0.numWorkItemsCompleted                   0                       # number of work items this cpu completed
system.cpu0.numWorkItemsStarted                     0                       # number of work items this cpu started
system.cpu0.quiesceCycles                     4941391                       # Total number of cycles that CPU has spent quiesced or waiting for an interrupt
system.cpu0.rename.BlockCycles              317877127                       # Number of cycles rename is blocking
system.cpu0.rename.CommittedMaps            670597193                       # Number of HB maps that are committed
system.cpu0.rename.IQFullEvents              12287425                       # Number of times rename has blocked due to IQ full
system.cpu0.rename.IdleCycles               629067743                       # Number of cycles rename is idle
system.cpu0.rename.LQFullEvents              12081758                       # Number of times rename has blocked due to LQ full
system.cpu0.rename.ROBFullEvents                55042                       # Number of times rename has blocked due to ROB full
system.cpu0.rename.RenameLookups           1372301448                       # Number of register rename lookups that rename has made
system.cpu0.rename.RenamedInsts            1121282586                       # Number of instructions processed by rename
system.cpu0.rename.RenamedOperands          719186419                       # Number of destination operands rename has renamed
system.cpu0.rename.RunCycles                758946857                       # Number of cycles rename is running
system.cpu0.rename.SQFullEvents              18632147                       # Number of times rename has blocked due to SQ full
system.cpu0.rename.SquashCycles               7615757                       # Number of cycles rename is squashing
system.cpu0.rename.UnblockCycles             43368324                       # Number of cycles rename is unblocking
system.cpu0.rename.UndoneMaps                48589222                       # Number of HB maps that are undone due to squashing
system.cpu0.rename.fp_rename_lookups               53                       # Number of floating rename lookups
system.cpu0.rename.int_rename_lookups      1372301395                       # Number of integer rename lookups
system.cpu0.rename.serializeStallCycles        124915                       # count of cycles rename stalled for serializing inst
system.cpu0.rename.serializingInsts              4664                       # count of serializing insts renamed
system.cpu0.rename.skidInsts                 25125191                       # count of insts added to the skid buffer
system.cpu0.rename.tempSerializingInsts          4651                       # count of temporary serializing insts renamed
system.cpu0.rob.rob_reads                  2823630825                       # The number of ROB reads
system.cpu0.rob.rob_writes                 2227532607                       # The number of ROB writes
system.cpu0.timesIdled                       19893102                       # Number of times that the entire CPU went into an idle state and unscheduled itself
system.cpu0.workload.numSyscalls                 1467                       # Number of system calls
system.cpu1.branchPred.BTBCorrect                   0                       # Number of correct BTB predictions (this stat may not work properly.
system.cpu1.branchPred.BTBHitPct            94.973718                       # BTB Hit Percentage
system.cpu1.branchPred.BTBHits                9593527                       # Number of BTB hits
system.cpu1.branchPred.BTBLookups            10101244                       # Number of BTB lookups
system.cpu1.branchPred.RASInCorrect                 0                       # Number of incorrect RAS predictions.
system.cpu1.branchPred.condIncorrect          1926279                       # Number of conditional branches incorrect
system.cpu1.branchPred.condPredicted         18698820                       # Number of conditional branches predicted
system.cpu1.branchPred.indirectHits            324268                       # Number of indirect target hits.
system.cpu1.branchPred.indirectLookups         467977                       # Number of indirect predictor lookups.
system.cpu1.branchPred.indirectMisses          143709                       # Number of indirect misses.
system.cpu1.branchPred.lookups               20382146                       # Number of BP lookups
system.cpu1.branchPred.usedRAS                      0                       # Number of times the RAS was used to get a target.
system.cpu1.branchPredindirectMispredicted         4865                       # Number of mispredicted indirect branches.
system.cpu1.commit.amos                       1811197                       # Number of atomic instructions committed
system.cpu1.commit.branchMispredicts          1131106                       # The number of times a branch was mispredicted
system.cpu1.commit.branches                  12200312                       # Number of branches committed
system.cpu1.commit.bw_lim_events              1112926                       # number cycles where commit BW limit reached
system.cpu1.commit.commitNonSpecStalls        5434248                       # The number of times commit has been forced to stall to communicate backwards
system.cpu1.commit.commitSquashedInsts       21029564                       # The number of squashed insts skipped by commit
system.cpu1.commit.committedInsts            55066049                       # Number of instructions committed
system.cpu1.commit.committedOps              56877419                       # Number of ops (including micro ops) committed
system.cpu1.commit.committed_per_cycle::samples    349162716                       # Number of insts commited each cycle
system.cpu1.commit.committed_per_cycle::mean     0.162897                       # Number of insts commited each cycle
system.cpu1.commit.committed_per_cycle::stdev     0.786647                       # Number of insts commited each cycle
system.cpu1.commit.committed_per_cycle::underflows            0      0.00%      0.00% # Number of insts commited each cycle
system.cpu1.commit.committed_per_cycle::0    325153587     93.12%     93.12% # Number of insts commited each cycle
system.cpu1.commit.committed_per_cycle::1     11985945      3.43%     96.56% # Number of insts commited each cycle
system.cpu1.commit.committed_per_cycle::2      4069776      1.17%     97.72% # Number of insts commited each cycle
system.cpu1.commit.committed_per_cycle::3      3749513      1.07%     98.80% # Number of insts commited each cycle
system.cpu1.commit.committed_per_cycle::4       911212      0.26%     99.06% # Number of insts commited each cycle
system.cpu1.commit.committed_per_cycle::5       323849      0.09%     99.15% # Number of insts commited each cycle
system.cpu1.commit.committed_per_cycle::6      1655474      0.47%     99.62% # Number of insts commited each cycle
system.cpu1.commit.committed_per_cycle::7       200434      0.06%     99.68% # Number of insts commited each cycle
system.cpu1.commit.committed_per_cycle::8      1112926      0.32%    100.00% # Number of insts commited each cycle
system.cpu1.commit.committed_per_cycle::overflows            0      0.00%    100.00% # Number of insts commited each cycle
system.cpu1.commit.committed_per_cycle::min_value            0                       # Number of insts commited each cycle
system.cpu1.commit.committed_per_cycle::max_value            8                       # Number of insts commited each cycle
system.cpu1.commit.committed_per_cycle::total    349162716                       # Number of insts commited each cycle
system.cpu1.commit.fp_insts                        12                       # Number of committed floating point instructions.
system.cpu1.commit.function_calls              502116                       # Number of function calls committed.
system.cpu1.commit.int_insts                 52963469                       # Number of committed integer instructions.
system.cpu1.commit.loads                     16124206                       # Number of loads committed
system.cpu1.commit.membars                    3622511                       # Number of memory barriers committed
system.cpu1.commit.op_class_0::No_OpClass      3622511      6.37%      6.37% # Class of committed instruction
system.cpu1.commit.op_class_0::IntAlu        32004056     56.27%     62.64% # Class of committed instruction
system.cpu1.commit.op_class_0::IntMult             43      0.00%     62.64% # Class of committed instruction
system.cpu1.commit.op_class_0::IntDiv              86      0.00%     62.64% # Class of committed instruction
system.cpu1.commit.op_class_0::FloatAdd             0      0.00%     62.64% # Class of committed instruction
system.cpu1.commit.op_class_0::FloatCmp             0      0.00%     62.64% # Class of committed instruction
system.cpu1.commit.op_class_0::FloatCvt             0      0.00%     62.64% # Class of committed instruction
system.cpu1.commit.op_class_0::FloatMult            0      0.00%     62.64% # Class of committed instruction
system.cpu1.commit.op_class_0::FloatMultAcc            0      0.00%     62.64% # Class of committed instruction
system.cpu1.commit.op_class_0::FloatDiv             0      0.00%     62.64% # Class of committed instruction
system.cpu1.commit.op_class_0::FloatMisc            0      0.00%     62.64% # Class of committed instruction
system.cpu1.commit.op_class_0::FloatSqrt            0      0.00%     62.64% # Class of committed instruction
system.cpu1.commit.op_class_0::SimdAdd              0      0.00%     62.64% # Class of committed instruction
system.cpu1.commit.op_class_0::SimdAddAcc            0      0.00%     62.64% # Class of committed instruction
system.cpu1.commit.op_class_0::SimdAlu              0      0.00%     62.64% # Class of committed instruction
system.cpu1.commit.op_class_0::SimdCmp              0      0.00%     62.64% # Class of committed instruction
system.cpu1.commit.op_class_0::SimdCvt              0      0.00%     62.64% # Class of committed instruction
system.cpu1.commit.op_class_0::SimdMisc             0      0.00%     62.64% # Class of committed instruction
system.cpu1.commit.op_class_0::SimdMult             0      0.00%     62.64% # Class of committed instruction
system.cpu1.commit.op_class_0::SimdMultAcc            0      0.00%     62.64% # Class of committed instruction
system.cpu1.commit.op_class_0::SimdShift            0      0.00%     62.64% # Class of committed instruction
system.cpu1.commit.op_class_0::SimdShiftAcc            0      0.00%     62.64% # Class of committed instruction
system.cpu1.commit.op_class_0::SimdDiv              0      0.00%     62.64% # Class of committed instruction
system.cpu1.commit.op_class_0::SimdSqrt             0      0.00%     62.64% # Class of committed instruction
system.cpu1.commit.op_class_0::SimdFloatAdd            0      0.00%     62.64% # Class of committed instruction
system.cpu1.commit.op_class_0::SimdFloatAlu            0      0.00%     62.64% # Class of committed instruction
system.cpu1.commit.op_class_0::SimdFloatCmp            0      0.00%     62.64% # Class of committed instruction
system.cpu1.commit.op_class_0::SimdFloatCvt            0      0.00%     62.64% # Class of committed instruction
system.cpu1.commit.op_class_0::SimdFloatDiv            0      0.00%     62.64% # Class of committed instruction
system.cpu1.commit.op_class_0::SimdFloatMisc            0      0.00%     62.64% # Class of committed instruction
system.cpu1.commit.op_class_0::SimdFloatMult            0      0.00%     62.64% # Class of committed instruction
system.cpu1.commit.op_class_0::SimdFloatMultAcc            0      0.00%     62.64% # Class of committed instruction
system.cpu1.commit.op_class_0::SimdFloatSqrt            0      0.00%     62.64% # Class of committed instruction
system.cpu1.commit.op_class_0::SimdReduceAdd            0      0.00%     62.64% # Class of committed instruction
system.cpu1.commit.op_class_0::SimdReduceAlu            0      0.00%     62.64% # Class of committed instruction
system.cpu1.commit.op_class_0::SimdReduceCmp            0      0.00%     62.64% # Class of committed instruction
system.cpu1.commit.op_class_0::SimdFloatReduceAdd            0      0.00%     62.64% # Class of committed instruction
system.cpu1.commit.op_class_0::SimdFloatReduceCmp            0      0.00%     62.64% # Class of committed instruction
system.cpu1.commit.op_class_0::SimdAes              0      0.00%     62.64% # Class of committed instruction
system.cpu1.commit.op_class_0::SimdAesMix            0      0.00%     62.64% # Class of committed instruction
system.cpu1.commit.op_class_0::SimdSha1Hash            0      0.00%     62.64% # Class of committed instruction
system.cpu1.commit.op_class_0::SimdSha1Hash2            0      0.00%     62.64% # Class of committed instruction
system.cpu1.commit.op_class_0::SimdSha256Hash            0      0.00%     62.64% # Class of committed instruction
system.cpu1.commit.op_class_0::SimdSha256Hash2            0      0.00%     62.64% # Class of committed instruction
system.cpu1.commit.op_class_0::SimdShaSigma2            0      0.00%     62.64% # Class of committed instruction
system.cpu1.commit.op_class_0::SimdShaSigma3            0      0.00%     62.64% # Class of committed instruction
system.cpu1.commit.op_class_0::SimdPredAlu            0      0.00%     62.64% # Class of committed instruction
system.cpu1.commit.op_class_0::MemRead       17935403     31.53%     94.17% # Class of committed instruction
system.cpu1.commit.op_class_0::MemWrite       3315308      5.83%    100.00% # Class of committed instruction
system.cpu1.commit.op_class_0::FloatMemRead            0      0.00%    100.00% # Class of committed instruction
system.cpu1.commit.op_class_0::FloatMemWrite           12      0.00%    100.00% # Class of committed instruction
system.cpu1.commit.op_class_0::IprAccess            0      0.00%    100.00% # Class of committed instruction
system.cpu1.commit.op_class_0::InstPrefetch            0      0.00%    100.00% # Class of committed instruction
system.cpu1.commit.op_class_0::total         56877419                       # Class of committed instruction
system.cpu1.commit.refs                      21250723                       # Number of memory references committed
system.cpu1.commit.swp_count                        0                       # Number of s/w prefetches committed
system.cpu1.commit.vec_insts                        0                       # Number of committed Vector instructions.
system.cpu1.committedInsts                   55066049                       # Number of Instructions Simulated
system.cpu1.committedOps                     56877419                       # Number of Ops (including micro ops) Simulated
system.cpu1.cpi                              6.413596                       # CPI: Cycles Per Instruction
system.cpu1.cpi_total                        6.413596                       # CPI: Total CPI of All Threads
system.cpu1.decode.BlockedCycles            302688509                       # Number of cycles decode is blocked
system.cpu1.decode.BranchMispred               801403                       # Number of times decode detected a branch misprediction
system.cpu1.decode.BranchResolved             8453833                       # Number of times decode resolved a branch
system.cpu1.decode.DecodedInsts              84968936                       # Number of instructions handled by decode
system.cpu1.decode.IdleCycles                14296710                       # Number of cycles decode is idle
system.cpu1.decode.RunCycles                 30128905                       # Number of cycles decode is running
system.cpu1.decode.SquashCycles               1131622                       # Number of cycles decode is squashing
system.cpu1.decode.SquashedInsts              1173234                       # Number of squashed instructions handled by decode
system.cpu1.decode.UnblockCycles              4353357                       # Number of cycles decode is unblocking
system.cpu1.dtb.accesses                            0                       # DTB accesses
system.cpu1.dtb.hits                                0                       # DTB hits
system.cpu1.dtb.misses                              0                       # DTB misses
system.cpu1.dtb.read_accesses                       0                       # DTB read accesses
system.cpu1.dtb.read_hits                           0                       # DTB read hits
system.cpu1.dtb.read_misses                         0                       # DTB read misses
system.cpu1.dtb.write_accesses                      0                       # DTB write accesses
system.cpu1.dtb.write_hits                          0                       # DTB write hits
system.cpu1.dtb.write_misses                        0                       # DTB write misses
system.cpu1.fetch.Branches                   20382146                       # Number of branches that fetch encountered
system.cpu1.fetch.CacheLines                 14527829                       # Number of cache lines fetched
system.cpu1.fetch.Cycles                    334558414                       # Number of cycles fetch has run and was not squashing or blocked
system.cpu1.fetch.IcacheSquashes               126250                       # Number of outstanding Icache misses that were squashed
system.cpu1.fetch.Insts                      98428766                       # Number of instructions fetch has processed
system.cpu1.fetch.MiscStallCycles                   1                       # Number of cycles fetch has spent waiting on interrupts, or bad addresses, or out of MSHRs
system.cpu1.fetch.SquashCycles                3853590                       # Number of cycles fetch has spent squashing
system.cpu1.fetch.branchRate                 0.057712                       # Number of branch fetches per cycle
system.cpu1.fetch.icacheStallCycles          16113893                       # Number of cycles fetch is stalled on an Icache miss
system.cpu1.fetch.predictedBranches           9917795                       # Number of branches that fetch has predicted taken
system.cpu1.fetch.rate                       0.278700                       # Number of inst fetches per cycle
system.cpu1.fetch.rateDist::samples         352599103                       # Number of instructions fetched each cycle (Total)
system.cpu1.fetch.rateDist::mean             0.289806                       # Number of instructions fetched each cycle (Total)
system.cpu1.fetch.rateDist::stdev            0.774169                       # Number of instructions fetched each cycle (Total)
system.cpu1.fetch.rateDist::underflows              0      0.00%      0.00% # Number of instructions fetched each cycle (Total)
system.cpu1.fetch.rateDist::0               292830830     83.05%     83.05% # Number of instructions fetched each cycle (Total)
system.cpu1.fetch.rateDist::1                34353190      9.74%     92.79% # Number of instructions fetched each cycle (Total)
system.cpu1.fetch.rateDist::2                15080789      4.28%     97.07% # Number of instructions fetched each cycle (Total)
system.cpu1.fetch.rateDist::3                 6071058      1.72%     98.79% # Number of instructions fetched each cycle (Total)
system.cpu1.fetch.rateDist::4                 2733376      0.78%     99.57% # Number of instructions fetched each cycle (Total)
system.cpu1.fetch.rateDist::5                  662937      0.19%     99.75% # Number of instructions fetched each cycle (Total)
system.cpu1.fetch.rateDist::6                  863075      0.24%    100.00% # Number of instructions fetched each cycle (Total)
system.cpu1.fetch.rateDist::7                      18      0.00%    100.00% # Number of instructions fetched each cycle (Total)
system.cpu1.fetch.rateDist::8                    3830      0.00%    100.00% # Number of instructions fetched each cycle (Total)
system.cpu1.fetch.rateDist::overflows               0      0.00%    100.00% # Number of instructions fetched each cycle (Total)
system.cpu1.fetch.rateDist::min_value               0                       # Number of instructions fetched each cycle (Total)
system.cpu1.fetch.rateDist::max_value               8                       # Number of instructions fetched each cycle (Total)
system.cpu1.fetch.rateDist::total           352599103                       # Number of instructions fetched each cycle (Total)
system.cpu1.fp_regfile_reads                       12                       # number of floating regfile reads
system.cpu1.idleCycles                         572307                       # Total number of cycles that the CPU has spent unscheduled due to idling
system.cpu1.iew.branchMispredicts             1179090                       # Number of branch mispredicts detected at execute
system.cpu1.iew.exec_branches                14674694                       # Number of branches executed
system.cpu1.iew.exec_nop                            0                       # number of nop insts executed
system.cpu1.iew.exec_rate                    0.180311                       # Inst execution rate
system.cpu1.iew.exec_refs                    22349726                       # number of memory reference insts executed
system.cpu1.iew.exec_stores                   5213136                       # Number of stores executed
system.cpu1.iew.exec_swp                            0                       # number of swp insts executed
system.cpu1.iew.iewBlockCycles              260450478                       # Number of cycles IEW is blocking
system.cpu1.iew.iewDispLoadInsts             22224784                       # Number of dispatched load instructions
system.cpu1.iew.iewDispNonSpecInsts           2712021                       # Number of dispatched non-speculative instructions
system.cpu1.iew.iewDispSquashedInsts          2218402                       # Number of squashed instructions skipped by dispatch
system.cpu1.iew.iewDispStoreInsts             7101033                       # Number of dispatched store instructions
system.cpu1.iew.iewDispatchedInsts           77897236                       # Number of instructions dispatched to IQ
system.cpu1.iew.iewExecLoadInsts             17136590                       # Number of load instructions executed
system.cpu1.iew.iewExecSquashedInsts           737582                       # Number of squashed instructions skipped in execute
system.cpu1.iew.iewExecutedInsts             63680662                       # Number of executed instructions
system.cpu1.iew.iewIQFullEvents               1721269                       # Number of times the IQ has become full, causing a stall
system.cpu1.iew.iewIdleCycles                       0                       # Number of cycles IEW is idle
system.cpu1.iew.iewLSQFullEvents              2319513                       # Number of times the LSQ has become full, causing a stall
system.cpu1.iew.iewSquashCycles               1131622                       # Number of cycles IEW is squashing
system.cpu1.iew.iewUnblockCycles              5755389                       # Number of cycles IEW is unblocking
system.cpu1.iew.lsq.thread0.blockedLoads            0                       # Number of blocked loads due to partial load-store forwarding
system.cpu1.iew.lsq.thread0.cacheBlocked        20774                       # Number of times an access to memory failed due to the cache being blocked
system.cpu1.iew.lsq.thread0.forwLoads          314256                       # Number of loads that had data forwarded from stores
system.cpu1.iew.lsq.thread0.ignoredResponses        10406                       # Number of memory responses ignored because the instruction is squashed
system.cpu1.iew.lsq.thread0.invAddrLoads            0                       # Number of loads ignored due to an invalid address
system.cpu1.iew.lsq.thread0.invAddrSwpfs            0                       # Number of software prefetches ignored due to an invalid address
system.cpu1.iew.lsq.thread0.memOrderViolation          571                       # Number of memory ordering violations
system.cpu1.iew.lsq.thread0.rescheduledLoads         3197                       # Number of loads that were rescheduled
system.cpu1.iew.lsq.thread0.squashedLoads      6100578                       # Number of loads squashed
system.cpu1.iew.lsq.thread0.squashedStores      1974516                       # Number of stores squashed
system.cpu1.iew.memOrderViolationEvents           571                       # Number of memory order violations
system.cpu1.iew.predictedNotTakenIncorrect       199728                       # Number of branches that were predicted not taken incorrectly
system.cpu1.iew.predictedTakenIncorrect        979362                       # Number of branches that were predicted taken incorrectly
system.cpu1.iew.wb_consumers                 36481257                       # num instructions consuming a value
system.cpu1.iew.wb_count                     63320819                       # cumulative count of insts written-back
system.cpu1.iew.wb_fanout                    0.843043                       # average fanout of values written-back
system.cpu1.iew.wb_producers                 30755278                       # num instructions producing a value
system.cpu1.iew.wb_rate                      0.179292                       # insts written-back per cycle
system.cpu1.iew.wb_sent                      63336230                       # cumulative count of insts sent to commit
system.cpu1.int_regfile_reads                79577711                       # number of integer regfile reads
system.cpu1.int_regfile_writes               41913167                       # number of integer regfile writes
system.cpu1.ipc                              0.155919                       # IPC: Instructions Per Cycle
system.cpu1.ipc_total                        0.155919                       # IPC: Total IPC of All Threads
system.cpu1.iq.FU_type_0::No_OpClass          3622612      5.62%      5.62% # Type of FU issued
system.cpu1.iq.FU_type_0::IntAlu             38340041     59.52%     65.14% # Type of FU issued
system.cpu1.iq.FU_type_0::IntMult                  46      0.00%     65.14% # Type of FU issued
system.cpu1.iq.FU_type_0::IntDiv                   86      0.00%     65.14% # Type of FU issued
system.cpu1.iq.FU_type_0::FloatAdd                  0      0.00%     65.14% # Type of FU issued
system.cpu1.iq.FU_type_0::FloatCmp                  0      0.00%     65.14% # Type of FU issued
system.cpu1.iq.FU_type_0::FloatCvt                  0      0.00%     65.14% # Type of FU issued
system.cpu1.iq.FU_type_0::FloatMult                 0      0.00%     65.14% # Type of FU issued
system.cpu1.iq.FU_type_0::FloatMultAcc              0      0.00%     65.14% # Type of FU issued
system.cpu1.iq.FU_type_0::FloatDiv                  0      0.00%     65.14% # Type of FU issued
system.cpu1.iq.FU_type_0::FloatMisc                 0      0.00%     65.14% # Type of FU issued
system.cpu1.iq.FU_type_0::FloatSqrt                 0      0.00%     65.14% # Type of FU issued
system.cpu1.iq.FU_type_0::SimdAdd                   0      0.00%     65.14% # Type of FU issued
system.cpu1.iq.FU_type_0::SimdAddAcc                0      0.00%     65.14% # Type of FU issued
system.cpu1.iq.FU_type_0::SimdAlu                   0      0.00%     65.14% # Type of FU issued
system.cpu1.iq.FU_type_0::SimdCmp                   0      0.00%     65.14% # Type of FU issued
system.cpu1.iq.FU_type_0::SimdCvt                   0      0.00%     65.14% # Type of FU issued
system.cpu1.iq.FU_type_0::SimdMisc                  0      0.00%     65.14% # Type of FU issued
system.cpu1.iq.FU_type_0::SimdMult                  0      0.00%     65.14% # Type of FU issued
system.cpu1.iq.FU_type_0::SimdMultAcc               0      0.00%     65.14% # Type of FU issued
system.cpu1.iq.FU_type_0::SimdShift                 0      0.00%     65.14% # Type of FU issued
system.cpu1.iq.FU_type_0::SimdShiftAcc              0      0.00%     65.14% # Type of FU issued
system.cpu1.iq.FU_type_0::SimdDiv                   0      0.00%     65.14% # Type of FU issued
system.cpu1.iq.FU_type_0::SimdSqrt                  0      0.00%     65.14% # Type of FU issued
system.cpu1.iq.FU_type_0::SimdFloatAdd              0      0.00%     65.14% # Type of FU issued
system.cpu1.iq.FU_type_0::SimdFloatAlu              0      0.00%     65.14% # Type of FU issued
system.cpu1.iq.FU_type_0::SimdFloatCmp              0      0.00%     65.14% # Type of FU issued
system.cpu1.iq.FU_type_0::SimdFloatCvt              0      0.00%     65.14% # Type of FU issued
system.cpu1.iq.FU_type_0::SimdFloatDiv              0      0.00%     65.14% # Type of FU issued
system.cpu1.iq.FU_type_0::SimdFloatMisc             0      0.00%     65.14% # Type of FU issued
system.cpu1.iq.FU_type_0::SimdFloatMult             0      0.00%     65.14% # Type of FU issued
system.cpu1.iq.FU_type_0::SimdFloatMultAcc            0      0.00%     65.14% # Type of FU issued
system.cpu1.iq.FU_type_0::SimdFloatSqrt             0      0.00%     65.14% # Type of FU issued
system.cpu1.iq.FU_type_0::SimdReduceAdd             0      0.00%     65.14% # Type of FU issued
system.cpu1.iq.FU_type_0::SimdReduceAlu             0      0.00%     65.14% # Type of FU issued
system.cpu1.iq.FU_type_0::SimdReduceCmp             0      0.00%     65.14% # Type of FU issued
system.cpu1.iq.FU_type_0::SimdFloatReduceAdd            0      0.00%     65.14% # Type of FU issued
system.cpu1.iq.FU_type_0::SimdFloatReduceCmp            0      0.00%     65.14% # Type of FU issued
system.cpu1.iq.FU_type_0::SimdAes                   0      0.00%     65.14% # Type of FU issued
system.cpu1.iq.FU_type_0::SimdAesMix                0      0.00%     65.14% # Type of FU issued
system.cpu1.iq.FU_type_0::SimdSha1Hash              0      0.00%     65.14% # Type of FU issued
system.cpu1.iq.FU_type_0::SimdSha1Hash2             0      0.00%     65.14% # Type of FU issued
system.cpu1.iq.FU_type_0::SimdSha256Hash            0      0.00%     65.14% # Type of FU issued
system.cpu1.iq.FU_type_0::SimdSha256Hash2            0      0.00%     65.14% # Type of FU issued
system.cpu1.iq.FU_type_0::SimdShaSigma2             0      0.00%     65.14% # Type of FU issued
system.cpu1.iq.FU_type_0::SimdShaSigma3             0      0.00%     65.14% # Type of FU issued
system.cpu1.iq.FU_type_0::SimdPredAlu               0      0.00%     65.14% # Type of FU issued
system.cpu1.iq.FU_type_0::MemRead            19039678     29.56%     94.70% # Type of FU issued
system.cpu1.iq.FU_type_0::MemWrite            3415769      5.30%    100.00% # Type of FU issued
system.cpu1.iq.FU_type_0::FloatMemRead              0      0.00%    100.00% # Type of FU issued
system.cpu1.iq.FU_type_0::FloatMemWrite            12      0.00%    100.00% # Type of FU issued
system.cpu1.iq.FU_type_0::IprAccess                 0      0.00%    100.00% # Type of FU issued
system.cpu1.iq.FU_type_0::InstPrefetch              0      0.00%    100.00% # Type of FU issued
system.cpu1.iq.FU_type_0::total              64418244                       # Type of FU issued
system.cpu1.iq.fp_alu_accesses                     16                       # Number of floating point alu accesses
system.cpu1.iq.fp_inst_queue_reads                 28                       # Number of floating instruction queue reads
system.cpu1.iq.fp_inst_queue_wakeup_accesses           12                       # Number of floating instruction queue wakeup accesses
system.cpu1.iq.fp_inst_queue_writes                12                       # Number of floating instruction queue writes
system.cpu1.iq.fu_busy_cnt                    1856887                       # FU busy when requested
system.cpu1.iq.fu_busy_rate                  0.028825                       # FU busy rate (busy events/executed inst)
system.cpu1.iq.fu_full::No_OpClass                  0      0.00%      0.00% # attempts to use FU when none available
system.cpu1.iq.fu_full::IntAlu                 264525     14.25%     14.25% # attempts to use FU when none available
system.cpu1.iq.fu_full::IntMult                     0      0.00%     14.25% # attempts to use FU when none available
system.cpu1.iq.fu_full::IntDiv                      0      0.00%     14.25% # attempts to use FU when none available
system.cpu1.iq.fu_full::FloatAdd                    0      0.00%     14.25% # attempts to use FU when none available
system.cpu1.iq.fu_full::FloatCmp                    0      0.00%     14.25% # attempts to use FU when none available
system.cpu1.iq.fu_full::FloatCvt                    0      0.00%     14.25% # attempts to use FU when none available
system.cpu1.iq.fu_full::FloatMult                   0      0.00%     14.25% # attempts to use FU when none available
system.cpu1.iq.fu_full::FloatMultAcc                0      0.00%     14.25% # attempts to use FU when none available
system.cpu1.iq.fu_full::FloatDiv                    0      0.00%     14.25% # attempts to use FU when none available
system.cpu1.iq.fu_full::FloatMisc                   0      0.00%     14.25% # attempts to use FU when none available
system.cpu1.iq.fu_full::FloatSqrt                   0      0.00%     14.25% # attempts to use FU when none available
system.cpu1.iq.fu_full::SimdAdd                     0      0.00%     14.25% # attempts to use FU when none available
system.cpu1.iq.fu_full::SimdAddAcc                  0      0.00%     14.25% # attempts to use FU when none available
system.cpu1.iq.fu_full::SimdAlu                     0      0.00%     14.25% # attempts to use FU when none available
system.cpu1.iq.fu_full::SimdCmp                     0      0.00%     14.25% # attempts to use FU when none available
system.cpu1.iq.fu_full::SimdCvt                     0      0.00%     14.25% # attempts to use FU when none available
system.cpu1.iq.fu_full::SimdMisc                    0      0.00%     14.25% # attempts to use FU when none available
system.cpu1.iq.fu_full::SimdMult                    0      0.00%     14.25% # attempts to use FU when none available
system.cpu1.iq.fu_full::SimdMultAcc                 0      0.00%     14.25% # attempts to use FU when none available
system.cpu1.iq.fu_full::SimdShift                   0      0.00%     14.25% # attempts to use FU when none available
system.cpu1.iq.fu_full::SimdShiftAcc                0      0.00%     14.25% # attempts to use FU when none available
system.cpu1.iq.fu_full::SimdDiv                     0      0.00%     14.25% # attempts to use FU when none available
system.cpu1.iq.fu_full::SimdSqrt                    0      0.00%     14.25% # attempts to use FU when none available
system.cpu1.iq.fu_full::SimdFloatAdd                0      0.00%     14.25% # attempts to use FU when none available
system.cpu1.iq.fu_full::SimdFloatAlu                0      0.00%     14.25% # attempts to use FU when none available
system.cpu1.iq.fu_full::SimdFloatCmp                0      0.00%     14.25% # attempts to use FU when none available
system.cpu1.iq.fu_full::SimdFloatCvt                0      0.00%     14.25% # attempts to use FU when none available
system.cpu1.iq.fu_full::SimdFloatDiv                0      0.00%     14.25% # attempts to use FU when none available
system.cpu1.iq.fu_full::SimdFloatMisc               0      0.00%     14.25% # attempts to use FU when none available
system.cpu1.iq.fu_full::SimdFloatMult               0      0.00%     14.25% # attempts to use FU when none available
system.cpu1.iq.fu_full::SimdFloatMultAcc            0      0.00%     14.25% # attempts to use FU when none available
system.cpu1.iq.fu_full::SimdFloatSqrt               0      0.00%     14.25% # attempts to use FU when none available
system.cpu1.iq.fu_full::SimdReduceAdd               0      0.00%     14.25% # attempts to use FU when none available
system.cpu1.iq.fu_full::SimdReduceAlu               0      0.00%     14.25% # attempts to use FU when none available
system.cpu1.iq.fu_full::SimdReduceCmp               0      0.00%     14.25% # attempts to use FU when none available
system.cpu1.iq.fu_full::SimdFloatReduceAdd            0      0.00%     14.25% # attempts to use FU when none available
system.cpu1.iq.fu_full::SimdFloatReduceCmp            0      0.00%     14.25% # attempts to use FU when none available
system.cpu1.iq.fu_full::SimdAes                     0      0.00%     14.25% # attempts to use FU when none available
system.cpu1.iq.fu_full::SimdAesMix                  0      0.00%     14.25% # attempts to use FU when none available
system.cpu1.iq.fu_full::SimdSha1Hash                0      0.00%     14.25% # attempts to use FU when none available
system.cpu1.iq.fu_full::SimdSha1Hash2               0      0.00%     14.25% # attempts to use FU when none available
system.cpu1.iq.fu_full::SimdSha256Hash              0      0.00%     14.25% # attempts to use FU when none available
system.cpu1.iq.fu_full::SimdSha256Hash2             0      0.00%     14.25% # attempts to use FU when none available
system.cpu1.iq.fu_full::SimdShaSigma2               0      0.00%     14.25% # attempts to use FU when none available
system.cpu1.iq.fu_full::SimdShaSigma3               0      0.00%     14.25% # attempts to use FU when none available
system.cpu1.iq.fu_full::SimdPredAlu                 0      0.00%     14.25% # attempts to use FU when none available
system.cpu1.iq.fu_full::MemRead               1437546     77.42%     91.66% # attempts to use FU when none available
system.cpu1.iq.fu_full::MemWrite               154812      8.34%    100.00% # attempts to use FU when none available
[...]
system.cpu1.dcache.ReadReq_avg_mshr_miss_latency::.cpu1.data 67994.167647                       # average ReadReq mshr miss latency
system.cpu1.dcache.ReadReq_avg_mshr_miss_latency::total 67994.167647                       # average ReadReq mshr miss latency
system.cpu1.dcache.WriteReq_hits::.cpu1.data      1410835                       # number of WriteReq hits
system.cpu1.dcache.WriteReq_hits::total       1410835                       # number of WriteReq hits
system.cpu1.dcache.WriteReq_misses::.cpu1.data       452636                       # number of WriteReq misses
system.cpu1.dcache.WriteReq_misses::total       452636                       # number of WriteReq misses
system.cpu1.dcache.WriteReq_miss_latency::.cpu1.data  36994617708                       # number of WriteReq miss cycles
system.cpu1.dcache.WriteReq_miss_latency::total  36994617708                       # number of WriteReq miss cycles
system.cpu1.dcache.WriteReq_accesses::.cpu1.data      1863471                       # number of WriteReq accesses(hits+misses)
system.cpu1.dcache.WriteReq_accesses::total      1863471                       # number of WriteReq accesses(hits+misses)
system.cpu1.dcache.WriteReq_miss_rate::.cpu1.data     0.242899                       # miss rate for WriteReq accesses
system.cpu1.dcache.WriteReq_miss_rate::total     0.242899                       # miss rate for WriteReq accesses
system.cpu1.dcache.WriteReq_avg_miss_latency::.cpu1.data 81731.496629                       # average WriteReq miss latency
system.cpu1.dcache.WriteReq_avg_miss_latency::total 81731.496629                       # average WriteReq miss latency
system.cpu1.dcache.WriteReq_mshr_hits::.cpu1.data       363134                       # number of WriteReq MSHR hits
system.cpu1.dcache.WriteReq_mshr_hits::total       363134                       # number of WriteReq MSHR hits
system.cpu1.dcache.WriteReq_mshr_misses::.cpu1.data        89502                       # number of WriteReq MSHR misses
system.cpu1.dcache.WriteReq_mshr_misses::total        89502                       # number of WriteReq MSHR misses
system.cpu1.dcache.WriteReq_mshr_miss_latency::.cpu1.data   5058205436                       # number of WriteReq MSHR miss cycles
system.cpu1.dcache.WriteReq_mshr_miss_latency::total   5058205436                       # number of WriteReq MSHR miss cycles
system.cpu1.dcache.WriteReq_mshr_miss_rate::.cpu1.data     0.048030                       # mshr miss rate for WriteReq accesses
system.cpu1.dcache.WriteReq_mshr_miss_rate::total     0.048030                       # mshr miss rate for WriteReq accesses
system.cpu1.dcache.WriteReq_avg_mshr_miss_latency::.cpu1.data 56514.998950                       # average WriteReq mshr miss latency
system.cpu1.dcache.WriteReq_avg_mshr_miss_latency::total 56514.998950                       # average WriteReq mshr miss latency
system.cpu1.dcache.LoadLockedReq_hits::.cpu1.data        67145                       # number of LoadLockedReq hits
system.cpu1.dcache.LoadLockedReq_hits::total        67145                       # number of LoadLockedReq hits
system.cpu1.dcache.LoadLockedReq_misses::.cpu1.data          784                       # number of LoadLockedReq misses
system.cpu1.dcache.LoadLockedReq_misses::total          784                       # number of LoadLockedReq misses
system.cpu1.dcache.LoadLockedReq_miss_latency::.cpu1.data     36443500                       # number of LoadLockedReq miss cycles
system.cpu1.dcache.LoadLockedReq_miss_latency::total     36443500                       # number of LoadLockedReq miss cycles
system.cpu1.dcache.LoadLockedReq_accesses::.cpu1.data        67929                       # number of LoadLockedReq accesses(hits+misses)
system.cpu1.dcache.LoadLockedReq_accesses::total        67929                       # number of LoadLockedReq accesses(hits+misses)
system.cpu1.dcache.LoadLockedReq_miss_rate::.cpu1.data     0.011541                       # miss rate for LoadLockedReq accesses
system.cpu1.dcache.LoadLockedReq_miss_rate::total     0.011541                       # miss rate for LoadLockedReq accesses
system.cpu1.dcache.LoadLockedReq_avg_miss_latency::.cpu1.data 46484.056122                       # average LoadLockedReq miss latency
system.cpu1.dcache.LoadLockedReq_avg_miss_latency::total 46484.056122                       # average LoadLockedReq miss latency
system.cpu1.dcache.LoadLockedReq_mshr_hits::.cpu1.data          182                       # number of LoadLockedReq MSHR hits
system.cpu1.dcache.LoadLockedReq_mshr_hits::total          182                       # number of LoadLockedReq MSHR hits
system.cpu1.dcache.LoadLockedReq_mshr_misses::.cpu1.data          602                       # number of LoadLockedReq MSHR misses
system.cpu1.dcache.LoadLockedReq_mshr_misses::total          602                       # number of LoadLockedReq MSHR misses
system.cpu1.dcache.LoadLockedReq_mshr_miss_latency::.cpu1.data     21329000                       # number of LoadLockedReq MSHR miss cycles
system.cpu1.dcache.LoadLockedReq_mshr_miss_latency::total     21329000                       # number of LoadLockedReq MSHR miss cycles
system.cpu1.dcache.LoadLockedReq_mshr_miss_rate::.cpu1.data     0.008862                       # mshr miss rate for LoadLockedReq accesses
system.cpu1.dcache.LoadLockedReq_mshr_miss_rate::total     0.008862                       # mshr miss rate for LoadLockedReq accesses
system.cpu1.dcache.LoadLockedReq_avg_mshr_miss_latency::.cpu1.data 35430.232558                       # average LoadLockedReq mshr miss latency
system.cpu1.dcache.LoadLockedReq_avg_mshr_miss_latency::total 35430.232558                       # average LoadLockedReq mshr miss latency
system.cpu1.dcache.StoreCondReq_hits::.cpu1.data        63117                       # number of StoreCondReq hits
system.cpu1.dcache.StoreCondReq_hits::total        63117                       # number of StoreCondReq hits
system.cpu1.dcache.StoreCondReq_misses::.cpu1.data         4517                       # number of StoreCondReq misses
system.cpu1.dcache.StoreCondReq_misses::total         4517                       # number of StoreCondReq misses
system.cpu1.dcache.StoreCondReq_miss_latency::.cpu1.data     23319500                       # number of StoreCondReq miss cycles
system.cpu1.dcache.StoreCondReq_miss_latency::total     23319500                       # number of StoreCondReq miss cycles
system.cpu1.dcache.StoreCondReq_accesses::.cpu1.data        67634                       # number of StoreCondReq accesses(hits+misses)
system.cpu1.dcache.StoreCondReq_accesses::total        67634                       # number of StoreCondReq accesses(hits+misses)
system.cpu1.dcache.StoreCondReq_miss_rate::.cpu1.data     0.066786                       # miss rate for StoreCondReq accesses
system.cpu1.dcache.StoreCondReq_miss_rate::total     0.066786                       # miss rate for StoreCondReq accesses
system.cpu1.dcache.StoreCondReq_avg_miss_latency::.cpu1.data  5162.607926                       # average StoreCondReq miss latency
system.cpu1.dcache.StoreCondReq_avg_miss_latency::total  5162.607926                       # average StoreCondReq miss latency
system.cpu1.dcache.StoreCondReq_mshr_misses::.cpu1.data         4445                       # number of StoreCondReq MSHR misses
system.cpu1.dcache.StoreCondReq_mshr_misses::total         4445                       # number of StoreCondReq MSHR misses
system.cpu1.dcache.StoreCondReq_mshr_miss_latency::.cpu1.data     18912500                       # number of StoreCondReq MSHR miss cycles
system.cpu1.dcache.StoreCondReq_mshr_miss_latency::total     18912500                       # number of StoreCondReq MSHR miss cycles
system.cpu1.dcache.StoreCondReq_mshr_miss_rate::.cpu1.data     0.065721                       # mshr miss rate for StoreCondReq accesses
system.cpu1.dcache.StoreCondReq_mshr_miss_rate::total     0.065721                       # mshr miss rate for StoreCondReq accesses
system.cpu1.dcache.StoreCondReq_avg_mshr_miss_latency::.cpu1.data  4254.780652                       # average StoreCondReq mshr miss latency
system.cpu1.dcache.StoreCondReq_avg_mshr_miss_latency::total  4254.780652                       # average StoreCondReq mshr miss latency
system.cpu1.dcache.StoreCondFailReq_miss_latency::.cpu1.data       892000                       # number of StoreCondFailReq miss cycles
system.cpu1.dcache.StoreCondFailReq_miss_latency::total       892000                       # number of StoreCondFailReq miss cycles
system.cpu1.dcache.StoreCondFailReq_avg_miss_latency::.cpu1.data          inf                       # average StoreCondFailReq miss latency
system.cpu1.dcache.StoreCondFailReq_avg_miss_latency::total          inf                       # average StoreCondFailReq miss latency
system.cpu1.dcache.StoreCondFailReq_mshr_miss_latency::.cpu1.data       854000                       # number of StoreCondFailReq MSHR miss cycles
system.cpu1.dcache.StoreCondFailReq_mshr_miss_latency::total       854000                       # number of StoreCondFailReq MSHR miss cycles
system.cpu1.dcache.StoreCondFailReq_avg_mshr_miss_latency::.cpu1.data          inf                       # average StoreCondFailReq mshr miss latency
system.cpu1.dcache.StoreCondFailReq_avg_mshr_miss_latency::total          inf                       # average StoreCondFailReq mshr miss latency
system.cpu1.dcache.SwapReq_hits::.cpu1.data         1495                       # number of SwapReq hits
system.cpu1.dcache.SwapReq_hits::total           1495                       # number of SwapReq hits
system.cpu1.dcache.SwapReq_misses::.cpu1.data         2838                       # number of SwapReq misses
system.cpu1.dcache.SwapReq_misses::total         2838                       # number of SwapReq misses
system.cpu1.dcache.SwapReq_miss_latency::.cpu1.data     69517500                       # number of SwapReq miss cycles
system.cpu1.dcache.SwapReq_miss_latency::total     69517500                       # number of SwapReq miss cycles
system.cpu1.dcache.SwapReq_accesses::.cpu1.data         4333                       # number of SwapReq accesses(hits+misses)
system.cpu1.dcache.SwapReq_accesses::total         4333                       # number of SwapReq accesses(hits+misses)
system.cpu1.dcache.SwapReq_miss_rate::.cpu1.data     0.654973                       # miss rate for SwapReq accesses
system.cpu1.dcache.SwapReq_miss_rate::total     0.654973                       # miss rate for SwapReq accesses
system.cpu1.dcache.SwapReq_avg_miss_latency::.cpu1.data 24495.243129                       # average SwapReq miss latency
system.cpu1.dcache.SwapReq_avg_miss_latency::total 24495.243129                       # average SwapReq miss latency
system.cpu1.dcache.SwapReq_mshr_misses::.cpu1.data         2838                       # number of SwapReq MSHR misses
system.cpu1.dcache.SwapReq_mshr_misses::total         2838                       # number of SwapReq MSHR misses
system.cpu1.dcache.SwapReq_mshr_miss_latency::.cpu1.data     66679500                       # number of SwapReq MSHR miss cycles
system.cpu1.dcache.SwapReq_mshr_miss_latency::total     66679500                       # number of SwapReq MSHR miss cycles
system.cpu1.dcache.SwapReq_mshr_miss_rate::.cpu1.data     0.654973                       # mshr miss rate for SwapReq accesses
system.cpu1.dcache.SwapReq_mshr_miss_rate::total     0.654973                       # mshr miss rate for SwapReq accesses
system.cpu1.dcache.SwapReq_avg_mshr_miss_latency::.cpu1.data 23495.243129                       # average SwapReq mshr miss latency
system.cpu1.dcache.SwapReq_avg_mshr_miss_latency::total 23495.243129                       # average SwapReq mshr miss latency
system.cpu1.dcache.tags.pwrStateResidencyTicks::UNDEFINED  77517562000                       # Cumulative time (in ticks) in various power states
system.cpu1.dcache.tags.tagsinuse           31.225952                       # Cycle average of tags in use
system.cpu1.dcache.tags.total_refs           17550582                       # Total number of references to valid blocks.
system.cpu1.dcache.tags.sampled_refs          1482540                       # Sample count of references to valid blocks.
system.cpu1.dcache.tags.avg_refs            11.838184                       # Average number of references to valid blocks.
system.cpu1.dcache.tags.warmup_cycle                0                       # Cycle when the warmup percentage was hit.
system.cpu1.dcache.tags.occ_blocks::.cpu1.data    31.225952                       # Average occupied blocks per requestor
system.cpu1.dcache.tags.occ_percent::.cpu1.data     0.975811                       # Average percentage of cache occupancy
system.cpu1.dcache.tags.occ_percent::total     0.975811                       # Average percentage of cache occupancy
system.cpu1.dcache.tags.occ_task_id_blocks::1024           28                       # Occupied blocks per task id
system.cpu1.dcache.tags.age_task_id_blocks_1024::1           28                       # Occupied blocks per task id
system.cpu1.dcache.tags.occ_task_id_percent::1024     0.875000                       # Percentage of cache occupancy per task id
system.cpu1.dcache.tags.tag_accesses         45453921                       # Number of tag accesses
system.cpu1.dcache.tags.data_accesses        45453921                       # Number of data accesses
system.cpu_clk_domain.clock                       500                       # Clock period in ticks
system.tol2bus.pwrStateResidencyTicks::UNDEFINED  77517562000                       # Cumulative time (in ticks) in various power states
system.tol2bus.trans_dist::ReadResp           3066428                       # Transaction distribution
system.tol2bus.trans_dist::WritebackDirty       819926                       # Transaction distribution
system.tol2bus.trans_dist::WritebackClean      2691166                       # Transaction distribution
system.tol2bus.trans_dist::CleanEvict         7880252                       # Transaction distribution
system.tol2bus.trans_dist::HardPFReq          8043169                       # Transaction distribution
system.tol2bus.trans_dist::UpgradeReq           48533                       # Transaction distribution
system.tol2bus.trans_dist::SCUpgradeReq          9118                       # Transaction distribution
system.tol2bus.trans_dist::UpgradeResp          57651                       # Transaction distribution
system.tol2bus.trans_dist::SCUpgradeFailReq           77                       # Transaction distribution
system.tol2bus.trans_dist::UpgradeFailResp           77                       # Transaction distribution
system.tol2bus.trans_dist::ReadExReq           169197                       # Transaction distribution
system.tol2bus.trans_dist::ReadExResp          169198                       # Transaction distribution
system.tol2bus.trans_dist::ReadCleanReq        119000                       # Transaction distribution
system.tol2bus.trans_dist::ReadSharedReq      2947427                       # Transaction distribution
system.tol2bus.trans_dist::InvalidateReq         1360                       # Transaction distribution
system.tol2bus.trans_dist::InvalidateResp         1360                       # Transaction distribution
system.tol2bus.pkt_count_system.cpu0.icache.mem_side::system.l2.cpu_side       298022                       # Packet count per connected master and slave (bytes)
system.tol2bus.pkt_count_system.cpu0.dcache.mem_side::system.l2.cpu_side      4863211                       # Packet count per connected master and slave (bytes)
system.tol2bus.pkt_count_system.cpu1.icache.mem_side::system.l2.cpu_side        58806                       # Packet count per connected master and slave (bytes)
system.tol2bus.pkt_count_system.cpu1.dcache.mem_side::system.l2.cpu_side      4403975                       # Packet count per connected master and slave (bytes)
system.tol2bus.pkt_count::total               9624014                       # Packet count per connected master and slave (bytes)
system.tol2bus.pkt_size_system.cpu0.icache.mem_side::system.l2.cpu_side     12711936                       # Cumulative packet size per connected master and slave (bytes)
system.tol2bus.pkt_size_system.cpu0.dcache.mem_side::system.l2.cpu_side    204263808                       # Cumulative packet size per connected master and slave (bytes)
system.tol2bus.pkt_size_system.cpu1.icache.mem_side::system.l2.cpu_side      2509056                       # Cumulative packet size per connected master and slave (bytes)
system.tol2bus.pkt_size_system.cpu1.dcache.mem_side::system.l2.cpu_side    184762112                       # Cumulative packet size per connected master and slave (bytes)
system.tol2bus.pkt_size::total              404246912                       # Cumulative packet size per connected master and slave (bytes)
system.tol2bus.snoops                        16399925                       # Total snoops (count)
system.tol2bus.snoopTraffic                  27547968                       # Total snoop traffic (bytes)
system.tol2bus.snoop_fanout::samples         19576491                       # Request fanout histogram
system.tol2bus.snoop_fanout::mean            0.143347                       # Request fanout histogram
system.tol2bus.snoop_fanout::stdev           0.369518                       # Request fanout histogram
system.tol2bus.snoop_fanout::underflows             0      0.00%      0.00% # Request fanout histogram
system.tol2bus.snoop_fanout::0               16904350     86.35%     86.35% # Request fanout histogram
system.tol2bus.snoop_fanout::1                2538486     12.97%     99.32% # Request fanout histogram
system.tol2bus.snoop_fanout::2                 133213      0.68%    100.00% # Request fanout histogram
system.tol2bus.snoop_fanout::3                    442      0.00%    100.00% # Request fanout histogram
system.tol2bus.snoop_fanout::4                      0      0.00%    100.00% # Request fanout histogram
system.tol2bus.snoop_fanout::5                      0      0.00%    100.00% # Request fanout histogram
system.tol2bus.snoop_fanout::6                      0      0.00%    100.00% # Request fanout histogram
system.tol2bus.snoop_fanout::7                      0      0.00%    100.00% # Request fanout histogram
system.tol2bus.snoop_fanout::8                      0      0.00%    100.00% # Request fanout histogram
system.tol2bus.snoop_fanout::overflows              0      0.00%    100.00% # Request fanout histogram
system.tol2bus.snoop_fanout::min_value              0                       # Request fanout histogram
system.tol2bus.snoop_fanout::max_value              3                       # Request fanout histogram
system.tol2bus.snoop_fanout::total           19576491                       # Request fanout histogram
system.tol2bus.reqLayer0.occupancy         6399363417                       # Layer occupancy (ticks)
system.tol2bus.reqLayer0.utilization              8.3                       # Layer utilization (%)
system.tol2bus.respLayer1.occupancy        2471917421                       # Layer occupancy (ticks)
system.tol2bus.respLayer1.utilization             3.2                       # Layer utilization (%)
system.tol2bus.respLayer0.occupancy         149196803                       # Layer occupancy (ticks)
system.tol2bus.respLayer0.utilization             0.2                       # Layer utilization (%)
system.tol2bus.respLayer3.occupancy        2243433392                       # Layer occupancy (ticks)
system.tol2bus.respLayer3.utilization             2.9                       # Layer utilization (%)
system.tol2bus.respLayer2.occupancy          29596612                       # Layer occupancy (ticks)
system.tol2bus.respLayer2.utilization             0.0                       # Layer utilization (%)

---------- End Simulation Statistics   ----------
