
---------- Begin Simulation Statistics ----------
final_tick                               863540927000                       # Number of ticks from beginning of simulation (restored from checkpoints and never reset)
host_inst_rate                                  96438                       # Simulator instruction rate (inst/s)
host_mem_usage                                 739252                       # Number of bytes of host memory used
host_op_rate                                    96749                       # Simulator op (including micro ops) rate (op/s)
host_seconds                                 10561.22                       # Real time elapsed on the host
host_tick_rate                               81765279                       # Simulator tick rate (ticks/s)
sim_freq                                 1000000000000                       # Frequency of simulated ticks
sim_insts                                  1018501780                       # Number of instructions simulated
sim_ops                                    1021783393                       # Number of ops (including micro ops) simulated
sim_seconds                                  0.863541                       # Number of seconds simulated
sim_ticks                                863540927000                       # Number of ticks simulated
system.cpu0.branchPred.BTBCorrect                   0                       # Number of correct BTB predictions (this stat may not work properly.
system.cpu0.branchPred.BTBHitPct            86.353638                       # BTB Hit Percentage
system.cpu0.branchPred.BTBHits              116134622                       # Number of BTB hits
system.cpu0.branchPred.BTBLookups           134487238                       # Number of BTB lookups
system.cpu0.branchPred.RASInCorrect                 0                       # Number of incorrect RAS predictions.
system.cpu0.branchPred.condIncorrect          7976691                       # Number of conditional branches incorrect
system.cpu0.branchPred.condPredicted        185393896                       # Number of conditional branches predicted
system.cpu0.branchPred.indirectHits          15841697                       # Number of indirect target hits.
system.cpu0.branchPred.indirectLookups       15949759                       # Number of indirect predictor lookups.
system.cpu0.branchPred.indirectMisses          108062                       # Number of indirect misses.
system.cpu0.branchPred.lookups              235558467                       # Number of BP lookups
system.cpu0.branchPred.usedRAS                      0                       # Number of times the RAS was used to get a target.
system.cpu0.branchPredindirectMispredicted      1663190                       # Number of mispredicted indirect branches.
system.cpu0.commit.amos                        819870                       # Number of atomic instructions committed
system.cpu0.commit.branchMispredicts          5438244                       # The number of times a branch was mispredicted
system.cpu0.commit.branches                 221014921                       # Number of branches committed
system.cpu0.commit.bw_lim_events             29131092                       # number cycles where commit BW limit reached
system.cpu0.commit.commitNonSpecStalls        2466143                       # The number of times commit has been forced to stall to communicate backwards
system.cpu0.commit.commitSquashedInsts       55344107                       # The number of squashed insts skipped by commit
system.cpu0.commit.committedInsts           892404474                       # Number of instructions committed
system.cpu0.commit.committedOps             893226555                       # Number of ops (including micro ops) committed
system.cpu0.commit.committed_per_cycle::samples   1556917629                       # Number of insts commited each cycle
system.cpu0.commit.committed_per_cycle::mean     0.573715                       # Number of insts commited each cycle
system.cpu0.commit.committed_per_cycle::stdev     1.356297                       # Number of insts commited each cycle
system.cpu0.commit.committed_per_cycle::underflows            0      0.00%      0.00% # Number of insts commited each cycle
system.cpu0.commit.committed_per_cycle::0   1120089954     71.94%     71.94% # Number of insts commited each cycle
system.cpu0.commit.committed_per_cycle::1    272592906     17.51%     89.45% # Number of insts commited each cycle
system.cpu0.commit.committed_per_cycle::2     53521773      3.44%     92.89% # Number of insts commited each cycle
system.cpu0.commit.committed_per_cycle::3     59204453      3.80%     96.69% # Number of insts commited each cycle
system.cpu0.commit.committed_per_cycle::4     13943850      0.90%     97.59% # Number of insts commited each cycle
system.cpu0.commit.committed_per_cycle::5      5343461      0.34%     97.93% # Number of insts commited each cycle
system.cpu0.commit.committed_per_cycle::6      1195677      0.08%     98.01% # Number of insts commited each cycle
system.cpu0.commit.committed_per_cycle::7      1894463      0.12%     98.13% # Number of insts commited each cycle
system.cpu0.commit.committed_per_cycle::8     29131092      1.87%    100.00% # Number of insts commited each cycle
system.cpu0.commit.committed_per_cycle::overflows            0      0.00%    100.00% # Number of insts commited each cycle
system.cpu0.commit.committed_per_cycle::min_value            0                       # Number of insts commited each cycle
system.cpu0.commit.committed_per_cycle::max_value            8                       # Number of insts commited each cycle
system.cpu0.commit.committed_per_cycle::total   1556917629                       # Number of insts commited each cycle
system.cpu0.commit.fp_insts                        46                       # Number of committed floating point instructions.
system.cpu0.commit.function_calls            18341030                       # Number of function calls committed.
system.cpu0.commit.int_insts                863514664                       # Number of committed integer instructions.
system.cpu0.commit.loads                    280412490                       # Number of loads committed
system.cpu0.commit.membars                    1641833                       # Number of memory barriers committed
system.cpu0.commit.op_class_0::No_OpClass      1641839      0.18%      0.18% # Class of committed instruction
system.cpu0.commit.op_class_0::IntAlu       491117765     54.98%     55.17% # Class of committed instruction
system.cpu0.commit.op_class_0::IntMult        7835016      0.88%     56.04% # Class of committed instruction
system.cpu0.commit.op_class_0::IntDiv         1638713      0.18%     56.23% # Class of committed instruction
system.cpu0.commit.op_class_0::FloatAdd             0      0.00%     56.23% # Class of committed instruction
system.cpu0.commit.op_class_0::FloatCmp             4      0.00%     56.23% # Class of committed instruction
system.cpu0.commit.op_class_0::FloatCvt            12      0.00%     56.23% # Class of committed instruction
system.cpu0.commit.op_class_0::FloatMult            0      0.00%     56.23% # Class of committed instruction
system.cpu0.commit.op_class_0::FloatMultAcc            0      0.00%     56.23% # Class of committed instruction
system.cpu0.commit.op_class_0::FloatDiv             2      0.00%     56.23% # Class of committed instruction
system.cpu0.commit.op_class_0::FloatMisc            4      0.00%     56.23% # Class of committed instruction
system.cpu0.commit.op_class_0::FloatSqrt            0      0.00%     56.23% # Class of committed instruction
system.cpu0.commit.op_class_0::SimdAdd              0      0.00%     56.23% # Class of committed instruction
system.cpu0.commit.op_class_0::SimdAddAcc            0      0.00%     56.23% # Class of committed instruction
system.cpu0.commit.op_class_0::SimdAlu              0      0.00%     56.23% # Class of committed instruction
system.cpu0.commit.op_class_0::SimdCmp              0      0.00%     56.23% # Class of committed instruction
system.cpu0.commit.op_class_0::SimdCvt              0      0.00%     56.23% # Class of committed instruction
system.cpu0.commit.op_class_0::SimdMisc             0      0.00%     56.23% # Class of committed instruction
system.cpu0.commit.op_class_0::SimdMult             0      0.00%     56.23% # Class of committed instruction
system.cpu0.commit.op_class_0::SimdMultAcc            0      0.00%     56.23% # Class of committed instruction
system.cpu0.commit.op_class_0::SimdShift            0      0.00%     56.23% # Class of committed instruction
system.cpu0.commit.op_class_0::SimdShiftAcc            0      0.00%     56.23% # Class of committed instruction
system.cpu0.commit.op_class_0::SimdDiv              0      0.00%     56.23% # Class of committed instruction
system.cpu0.commit.op_class_0::SimdSqrt             0      0.00%     56.23% # Class of committed instruction
system.cpu0.commit.op_class_0::SimdFloatAdd            0      0.00%     56.23% # Class of committed instruction
system.cpu0.commit.op_class_0::SimdFloatAlu            0      0.00%     56.23% # Class of committed instruction
system.cpu0.commit.op_class_0::SimdFloatCmp            0      0.00%     56.23% # Class of committed instruction
system.cpu0.commit.op_class_0::SimdFloatCvt            0      0.00%     56.23% # Class of committed instruction
system.cpu0.commit.op_class_0::SimdFloatDiv            0      0.00%     56.23% # Class of committed instruction
system.cpu0.commit.op_class_0::SimdFloatMisc            0      0.00%     56.23% # Class of committed instruction
system.cpu0.commit.op_class_0::SimdFloatMult            0      0.00%     56.23% # Class of committed instruction
system.cpu0.commit.op_class_0::SimdFloatMultAcc            0      0.00%     56.23% # Class of committed instruction
system.cpu0.commit.op_class_0::SimdFloatSqrt            0      0.00%     56.23% # Class of committed instruction
system.cpu0.commit.op_class_0::SimdReduceAdd            0      0.00%     56.23% # Class of committed instruction
system.cpu0.commit.op_class_0::SimdReduceAlu            0      0.00%     56.23% # Class of committed instruction
system.cpu0.commit.op_class_0::SimdReduceCmp            0      0.00%     56.23% # Class of committed instruction
system.cpu0.commit.op_class_0::SimdFloatReduceAdd            0      0.00%     56.23% # Class of committed instruction
system.cpu0.commit.op_class_0::SimdFloatReduceCmp            0      0.00%     56.23% # Class of committed instruction
system.cpu0.commit.op_class_0::SimdAes              0      0.00%     56.23% # Class of committed instruction
system.cpu0.commit.op_class_0::SimdAesMix            0      0.00%     56.23% # Class of committed instruction
system.cpu0.commit.op_class_0::SimdSha1Hash            0      0.00%     56.23% # Class of committed instruction
system.cpu0.commit.op_class_0::SimdSha1Hash2            0      0.00%     56.23% # Class of committed instruction
system.cpu0.commit.op_class_0::SimdSha256Hash            0      0.00%     56.23% # Class of committed instruction
system.cpu0.commit.op_class_0::SimdSha256Hash2            0      0.00%     56.23% # Class of committed instruction
system.cpu0.commit.op_class_0::SimdShaSigma2            0      0.00%     56.23% # Class of committed instruction
system.cpu0.commit.op_class_0::SimdShaSigma3            0      0.00%     56.23% # Class of committed instruction
system.cpu0.commit.op_class_0::SimdPredAlu            0      0.00%     56.23% # Class of committed instruction
system.cpu0.commit.op_class_0::MemRead      281232352     31.48%     87.71% # Class of committed instruction
system.cpu0.commit.op_class_0::MemWrite     109760824     12.29%    100.00% # Class of committed instruction
system.cpu0.commit.op_class_0::FloatMemRead            8      0.00%    100.00% # Class of committed instruction
system.cpu0.commit.op_class_0::FloatMemWrite           16      0.00%    100.00% # Class of committed instruction
system.cpu0.commit.op_class_0::IprAccess            0      0.00%    100.00% # Class of committed instruction
system.cpu0.commit.op_class_0::InstPrefetch            0      0.00%    100.00% # Class of committed instruction
system.cpu0.commit.op_class_0::total        893226555                       # Class of committed instruction
system.cpu0.commit.refs                     390993200                       # Number of memory references committed
system.cpu0.commit.swp_count                        0                       # Number of s/w prefetches committed
system.cpu0.commit.vec_insts                        0                       # Number of committed Vector instructions.
system.cpu0.committedInsts                  892404474                       # Number of Instructions Simulated
system.cpu0.committedOps                    893226555                       # Number of Ops (including micro ops) Simulated
system.cpu0.cpi                              1.907939                       # CPI: Cycles Per Instruction
system.cpu0.cpi_total                        1.907939                       # CPI: Total CPI of All Threads
system.cpu0.decode.BlockedCycles            183503635                       # Number of cycles decode is blocked
system.cpu0.decode.BranchMispred              2542212                       # Number of times decode detected a branch misprediction
system.cpu0.decode.BranchResolved           115287004                       # Number of times decode resolved a branch
system.cpu0.decode.DecodedInsts             962743381                       # Number of instructions handled by decode
system.cpu0.decode.IdleCycles               694880229                       # Number of cycles decode is idle
system.cpu0.decode.RunCycles                681010532                       # Number of cycles decode is running
system.cpu0.decode.SquashCycles               5446995                       # Number of cycles decode is squashing
system.cpu0.decode.SquashedInsts              4031061                       # Number of squashed instructions handled by decode
system.cpu0.decode.UnblockCycles              2701820                       # Number of cycles decode is unblocking
system.cpu0.dtb.accesses                            0                       # DTB accesses
system.cpu0.dtb.hits                                0                       # DTB hits
system.cpu0.dtb.misses                              0                       # DTB misses
system.cpu0.dtb.read_accesses                       0                       # DTB read accesses
system.cpu0.dtb.read_hits                           0                       # DTB read hits
system.cpu0.dtb.read_misses                         0                       # DTB read misses
system.cpu0.dtb.write_accesses                      0                       # DTB write accesses
system.cpu0.dtb.write_hits                          0                       # DTB write hits
system.cpu0.dtb.write_misses                        0                       # DTB write misses
system.cpu0.fetch.Branches                  235558467                       # Number of branches that fetch encountered
system.cpu0.fetch.CacheLines                169545141                       # Number of cache lines fetched
system.cpu0.fetch.Cycles                    870000601                       # Number of cycles fetch has run and was not squashing or blocked
system.cpu0.fetch.IcacheSquashes              3919605                       # Number of outstanding Icache misses that were squashed
system.cpu0.fetch.IcacheWaitRetryStallCycles          123                       # Number of stall cycles due to full MSHR
system.cpu0.fetch.Insts                     977782313                       # Number of instructions fetch has processed
system.cpu0.fetch.MiscStallCycles                  16                       # Number of cycles fetch has spent waiting on interrupts, or bad addresses, or out of MSHRs
system.cpu0.fetch.PendingTrapStallCycles           46                       # Number of stall cycles due to pending traps
system.cpu0.fetch.SquashCycles               15970892                       # Number of cycles fetch has spent squashing
system.cpu0.fetch.branchRate                 0.138348                       # Number of branch fetches per cycle
system.cpu0.fetch.icacheStallCycles         689556979                       # Number of cycles fetch is stalled on an Icache miss
system.cpu0.fetch.predictedBranches         131976319                       # Number of branches that fetch has predicted taken
system.cpu0.fetch.rate                       0.574270                       # Number of inst fetches per cycle
system.cpu0.fetch.rateDist::samples        1567543211                       # Number of instructions fetched each cycle (Total)
system.cpu0.fetch.rateDist::mean             0.625663                       # Number of instructions fetched each cycle (Total)
system.cpu0.fetch.rateDist::stdev            0.896386                       # Number of instructions fetched each cycle (Total)
system.cpu0.fetch.rateDist::underflows              0      0.00%      0.00% # Number of instructions fetched each cycle (Total)
system.cpu0.fetch.rateDist::0               866742334     55.29%     55.29% # Number of instructions fetched each cycle (Total)
system.cpu0.fetch.rateDist::1               522504039     33.33%     88.63% # Number of instructions fetched each cycle (Total)
system.cpu0.fetch.rateDist::2               108097167      6.90%     95.52% # Number of instructions fetched each cycle (Total)
system.cpu0.fetch.rateDist::3                56388222      3.60%     99.12% # Number of instructions fetched each cycle (Total)
system.cpu0.fetch.rateDist::4                 5005266      0.32%     99.44% # Number of instructions fetched each cycle (Total)
system.cpu0.fetch.rateDist::5                 4946696      0.32%     99.75% # Number of instructions fetched each cycle (Total)
system.cpu0.fetch.rateDist::6                  547674      0.03%     99.79% # Number of instructions fetched each cycle (Total)
system.cpu0.fetch.rateDist::7                 1643603      0.10%     99.89% # Number of instructions fetched each cycle (Total)
system.cpu0.fetch.rateDist::8                 1668210      0.11%    100.00% # Number of instructions fetched each cycle (Total)
system.cpu0.fetch.rateDist::overflows               0      0.00%    100.00% # Number of instructions fetched each cycle (Total)
system.cpu0.fetch.rateDist::min_value               0                       # Number of instructions fetched each cycle (Total)
system.cpu0.fetch.rateDist::max_value               8                       # Number of instructions fetched each cycle (Total)
system.cpu0.fetch.rateDist::total          1567543211                       # Number of instructions fetched each cycle (Total)
system.cpu0.fp_regfile_reads                       62                       # number of floating regfile reads
system.cpu0.fp_regfile_writes                      22                       # number of floating regfile writes
system.cpu0.idleCycles                      135110424                       # Total number of cycles that the CPU has spent unscheduled due to idling
system.cpu0.iew.branchMispredicts             5475819                       # Number of branch mispredicts detected at execute
system.cpu0.iew.exec_branches               226806201                       # Number of branches executed
system.cpu0.iew.exec_nop                            0                       # number of nop insts executed
system.cpu0.iew.exec_rate                    0.544983                       # Inst execution rate
system.cpu0.iew.exec_refs                   410470079                       # number of memory reference insts executed
system.cpu0.iew.exec_stores                 112950737                       # Number of stores executed
system.cpu0.iew.exec_swp                            0                       # number of swp insts executed
system.cpu0.iew.iewBlockCycles              162462596                       # Number of cycles IEW is blocking
system.cpu0.iew.iewDispLoadInsts            302330510                       # Number of dispatched load instructions
system.cpu0.iew.iewDispNonSpecInsts           1998087                       # Number of dispatched non-speculative instructions
system.cpu0.iew.iewDispSquashedInsts          1526540                       # Number of squashed instructions skipped by dispatch
system.cpu0.iew.iewDispStoreInsts           117078494                       # Number of dispatched store instructions
system.cpu0.iew.iewDispatchedInsts          948562629                       # Number of instructions dispatched to IQ
system.cpu0.iew.iewExecLoadInsts            297519342                       # Number of load instructions executed
system.cpu0.iew.iewExecSquashedInsts          4418379                       # Number of squashed instructions skipped in execute
system.cpu0.iew.iewExecutedInsts            927917734                       # Number of executed instructions
system.cpu0.iew.iewIQFullEvents                770286                       # Number of times the IQ has become full, causing a stall
system.cpu0.iew.iewIdleCycles                       0                       # Number of cycles IEW is idle
system.cpu0.iew.iewLSQFullEvents              1803129                       # Number of times the LSQ has become full, causing a stall
system.cpu0.iew.iewSquashCycles               5446995                       # Number of cycles IEW is squashing
system.cpu0.iew.iewUnblockCycles              3182597                       # Number of cycles IEW is unblocking
system.cpu0.iew.lsq.thread0.blockedLoads            0                       # Number of blocked loads due to partial load-store forwarding
system.cpu0.iew.lsq.thread0.cacheBlocked        37619                       # Number of times an access to memory failed due to the cache being blocked
system.cpu0.iew.lsq.thread0.forwLoads        16245927                       # Number of loads that had data forwarded from stores
system.cpu0.iew.lsq.thread0.ignoredResponses        13841                       # Number of memory responses ignored because the instruction is squashed
system.cpu0.iew.lsq.thread0.invAddrLoads            0                       # Number of loads ignored due to an invalid address
system.cpu0.iew.lsq.thread0.invAddrSwpfs            0                       # Number of software prefetches ignored due to an invalid address
system.cpu0.iew.lsq.thread0.memOrderViolation         8995                       # Number of memory ordering violations
system.cpu0.iew.lsq.thread0.rescheduledLoads      3725364                       # Number of loads that were rescheduled
system.cpu0.iew.lsq.thread0.squashedLoads     21918020                       # Number of loads squashed
system.cpu0.iew.lsq.thread0.squashedStores      6497784                       # Number of stores squashed
system.cpu0.iew.memOrderViolationEvents          8995                       # Number of memory order violations
system.cpu0.iew.predictedNotTakenIncorrect       727674                       # Number of branches that were predicted not taken incorrectly
system.cpu0.iew.predictedTakenIncorrect       4748145                       # Number of branches that were predicted taken incorrectly
system.cpu0.iew.wb_consumers                371746505                       # num instructions consuming a value
system.cpu0.iew.wb_count                    920087812                       # cumulative count of insts written-back
system.cpu0.iew.wb_fanout                    0.894527                       # average fanout of values written-back
system.cpu0.iew.wb_producers                332537448                       # num instructions producing a value
system.cpu0.iew.wb_rate                      0.540385                       # insts written-back per cycle
system.cpu0.iew.wb_sent                     920118273                       # cumulative count of insts sent to commit
system.cpu0.int_regfile_reads              1131137802                       # number of integer regfile reads
system.cpu0.int_regfile_writes              587942086                       # number of integer regfile writes
system.cpu0.ipc                              0.524126                       # IPC: Instructions Per Cycle
system.cpu0.ipc_total                        0.524126                       # IPC: Total IPC of All Threads
system.cpu0.iq.FU_type_0::No_OpClass          1643351      0.18%      0.18% # Type of FU issued
system.cpu0.iq.FU_type_0::IntAlu            507739289     54.46%     54.64% # Type of FU issued
system.cpu0.iq.FU_type_0::IntMult             7838283      0.84%     55.48% # Type of FU issued
system.cpu0.iq.FU_type_0::IntDiv              1639153      0.18%     55.65% # Type of FU issued
system.cpu0.iq.FU_type_0::FloatAdd                  0      0.00%     55.65% # Type of FU issued
system.cpu0.iq.FU_type_0::FloatCmp                  4      0.00%     55.65% # Type of FU issued
system.cpu0.iq.FU_type_0::FloatCvt                 12      0.00%     55.65% # Type of FU issued
system.cpu0.iq.FU_type_0::FloatMult                 0      0.00%     55.65% # Type of FU issued
system.cpu0.iq.FU_type_0::FloatMultAcc              0      0.00%     55.65% # Type of FU issued
system.cpu0.iq.FU_type_0::FloatDiv                  2      0.00%     55.65% # Type of FU issued
system.cpu0.iq.FU_type_0::FloatMisc                 4      0.00%     55.65% # Type of FU issued
system.cpu0.iq.FU_type_0::FloatSqrt                 0      0.00%     55.65% # Type of FU issued
system.cpu0.iq.FU_type_0::SimdAdd                   0      0.00%     55.65% # Type of FU issued
system.cpu0.iq.FU_type_0::SimdAddAcc                0      0.00%     55.65% # Type of FU issued
system.cpu0.iq.FU_type_0::SimdAlu                   0      0.00%     55.65% # Type of FU issued
system.cpu0.iq.FU_type_0::SimdCmp                   0      0.00%     55.65% # Type of FU issued
system.cpu0.iq.FU_type_0::SimdCvt                   0      0.00%     55.65% # Type of FU issued
system.cpu0.iq.FU_type_0::SimdMisc                  0      0.00%     55.65% # Type of FU issued
system.cpu0.iq.FU_type_0::SimdMult                  0      0.00%     55.65% # Type of FU issued
system.cpu0.iq.FU_type_0::SimdMultAcc               0      0.00%     55.65% # Type of FU issued
system.cpu0.iq.FU_type_0::SimdShift                 0      0.00%     55.65% # Type of FU issued
system.cpu0.iq.FU_type_0::SimdShiftAcc              0      0.00%     55.65% # Type of FU issued
system.cpu0.iq.FU_type_0::SimdDiv                   0      0.00%     55.65% # Type of FU issued
system.cpu0.iq.FU_type_0::SimdSqrt                  0      0.00%     55.65% # Type of FU issued
system.cpu0.iq.FU_type_0::SimdFloatAdd              0      0.00%     55.65% # Type of FU issued
system.cpu0.iq.FU_type_0::SimdFloatAlu              0      0.00%     55.65% # Type of FU issued
system.cpu0.iq.FU_type_0::SimdFloatCmp              0      0.00%     55.65% # Type of FU issued
system.cpu0.iq.FU_type_0::SimdFloatCvt              0      0.00%     55.65% # Type of FU issued
system.cpu0.iq.FU_type_0::SimdFloatDiv              0      0.00%     55.65% # Type of FU issued
system.cpu0.iq.FU_type_0::SimdFloatMisc             0      0.00%     55.65% # Type of FU issued
system.cpu0.iq.FU_type_0::SimdFloatMult             0      0.00%     55.65% # Type of FU issued
system.cpu0.iq.FU_type_0::SimdFloatMultAcc            0      0.00%     55.65% # Type of FU issued
system.cpu0.iq.FU_type_0::SimdFloatSqrt             0      0.00%     55.65% # Type of FU issued
system.cpu0.iq.FU_type_0::SimdReduceAdd             0      0.00%     55.65% # Type of FU issued
system.cpu0.iq.FU_type_0::SimdReduceAlu             0      0.00%     55.65% # Type of FU issued
system.cpu0.iq.FU_type_0::SimdReduceCmp             0      0.00%     55.65% # Type of FU issued
system.cpu0.iq.FU_type_0::SimdFloatReduceAdd            0      0.00%     55.65% # Type of FU issued
system.cpu0.iq.FU_type_0::SimdFloatReduceCmp            0      0.00%     55.65% # Type of FU issued
system.cpu0.iq.FU_type_0::SimdAes                   0      0.00%     55.65% # Type of FU issued
system.cpu0.iq.FU_type_0::SimdAesMix                0      0.00%     55.65% # Type of FU issued
system.cpu0.iq.FU_type_0::SimdSha1Hash              0      0.00%     55.65% # Type of FU issued
system.cpu0.iq.FU_type_0::SimdSha1Hash2             0      0.00%     55.65% # Type of FU issued
system.cpu0.iq.FU_type_0::SimdSha256Hash            0      0.00%     55.65% # Type of FU issued
system.cpu0.iq.FU_type_0::SimdSha256Hash2            0      0.00%     55.65% # Type of FU issued
system.cpu0.iq.FU_type_0::SimdShaSigma2             0      0.00%     55.65% # Type of FU issued
system.cpu0.iq.FU_type_0::SimdShaSigma3             0      0.00%     55.65% # Type of FU issued
system.cpu0.iq.FU_type_0::SimdPredAlu               0      0.00%     55.65% # Type of FU issued
system.cpu0.iq.FU_type_0::MemRead           299951251     32.17%     87.82% # Type of FU issued
system.cpu0.iq.FU_type_0::MemWrite          113524719     12.18%    100.00% # Type of FU issued
system.cpu0.iq.FU_type_0::FloatMemRead              8      0.00%    100.00% # Type of FU issued
system.cpu0.iq.FU_type_0::FloatMemWrite            38      0.00%    100.00% # Type of FU issued
system.cpu0.iq.FU_type_0::IprAccess                 0      0.00%    100.00% # Type of FU issued
system.cpu0.iq.FU_type_0::InstPrefetch              0      0.00%    100.00% # Type of FU issued
system.cpu0.iq.FU_type_0::total             932336114                       # Type of FU issued
system.cpu0.iq.fp_alu_accesses                     70                       # Number of floating point alu accesses
system.cpu0.iq.fp_inst_queue_reads                138                       # Number of floating instruction queue reads
system.cpu0.iq.fp_inst_queue_wakeup_accesses           68                       # Number of floating instruction queue wakeup accesses
system.cpu0.iq.fp_inst_queue_writes               168                       # Number of floating instruction queue writes
system.cpu0.iq.fu_busy_cnt                     858976                       # FU busy when requested
system.cpu0.iq.fu_busy_rate                  0.000921                       # FU busy rate (busy events/executed inst)
system.cpu0.iq.fu_full::No_OpClass                  0      0.00%      0.00% # attempts to use FU when none available
system.cpu0.iq.fu_full::IntAlu                 112019     13.04%     13.04% # attempts to use FU when none available
system.cpu0.iq.fu_full::IntMult                     0      0.00%     13.04% # attempts to use FU when none available
system.cpu0.iq.fu_full::IntDiv                      0      0.00%     13.04% # attempts to use FU when none available
system.cpu0.iq.fu_full::FloatAdd                    0      0.00%     13.04% # attempts to use FU when none available
system.cpu0.iq.fu_full::FloatCmp                    0      0.00%     13.04% # attempts to use FU when none available
system.cpu0.iq.fu_full::FloatCvt                    0      0.00%     13.04% # attempts to use FU when none available
system.cpu0.iq.fu_full::FloatMult                   0      0.00%     13.04% # attempts to use FU when none available
system.cpu0.iq.fu_full::FloatMultAcc                0      0.00%     13.04% # attempts to use FU when none available
system.cpu0.iq.fu_full::FloatDiv                    0      0.00%     13.04% # attempts to use FU when none available
system.cpu0.iq.fu_full::FloatMisc                   0      0.00%     13.04% # attempts to use FU when none available
system.cpu0.iq.fu_full::FloatSqrt                   0      0.00%     13.04% # attempts to use FU when none available
system.cpu0.iq.fu_full::SimdAdd                     0      0.00%     13.04% # attempts to use FU when none available
system.cpu0.iq.fu_full::SimdAddAcc                  0      0.00%     13.04% # attempts to use FU when none available
system.cpu0.iq.fu_full::SimdAlu                     0      0.00%     13.04% # attempts to use FU when none available
system.cpu0.iq.fu_full::SimdCmp                     0      0.00%     13.04% # attempts to use FU when none available
system.cpu0.iq.fu_full::SimdCvt                     0      0.00%     13.04% # attempts to use FU when none available
system.cpu0.iq.fu_full::SimdMisc                    0      0.00%     13.04% # attempts to use FU when none available
system.cpu0.iq.fu_full::SimdMult                    0      0.00%     13.04% # attempts to use FU when none available
system.cpu0.iq.fu_full::SimdMultAcc                 0      0.00%     13.04% # attempts to use FU when none available
system.cpu0.iq.fu_full::SimdShift                   0      0.00%     13.04% # attempts to use FU when none available
system.cpu0.iq.fu_full::SimdShiftAcc                0      0.00%     13.04% # attempts to use FU when none available
system.cpu0.iq.fu_full::SimdDiv                     0      0.00%     13.04% # attempts to use FU when none available
system.cpu0.iq.fu_full::SimdSqrt                    0      0.00%     13.04% # attempts to use FU when none available
system.cpu0.iq.fu_full::SimdFloatAdd                0      0.00%     13.04% # attempts to use FU when none available
system.cpu0.iq.fu_full::SimdFloatAlu                0      0.00%     13.04% # attempts to use FU when none available
system.cpu0.iq.fu_full::SimdFloatCmp                0      0.00%     13.04% # attempts to use FU when none available
system.cpu0.iq.fu_full::SimdFloatCvt                0      0.00%     13.04% # attempts to use FU when none available
system.cpu0.iq.fu_full::SimdFloatDiv                0      0.00%     13.04% # attempts to use FU when none available
system.cpu0.iq.fu_full::SimdFloatMisc               0      0.00%     13.04% # attempts to use FU when none available
system.cpu0.iq.fu_full::SimdFloatMult               0      0.00%     13.04% # attempts to use FU when none available
system.cpu0.iq.fu_full::SimdFloatMultAcc            0      0.00%     13.04% # attempts to use FU when none available
system.cpu0.iq.fu_full::SimdFloatSqrt               0      0.00%     13.04% # attempts to use FU when none available
system.cpu0.iq.fu_full::SimdReduceAdd               0      0.00%     13.04% # attempts to use FU when none available
system.cpu0.iq.fu_full::SimdReduceAlu               0      0.00%     13.04% # attempts to use FU when none available
system.cpu0.iq.fu_full::SimdReduceCmp               0      0.00%     13.04% # attempts to use FU when none available
system.cpu0.iq.fu_full::SimdFloatReduceAdd            0      0.00%     13.04% # attempts to use FU when none available
system.cpu0.iq.fu_full::SimdFloatReduceCmp            0      0.00%     13.04% # attempts to use FU when none available
system.cpu0.iq.fu_full::SimdAes                     0      0.00%     13.04% # attempts to use FU when none available
system.cpu0.iq.fu_full::SimdAesMix                  0      0.00%     13.04% # attempts to use FU when none available
system.cpu0.iq.fu_full::SimdSha1Hash                0      0.00%     13.04% # attempts to use FU when none available
system.cpu0.iq.fu_full::SimdSha1Hash2               0      0.00%     13.04% # attempts to use FU when none available
system.cpu0.iq.fu_full::SimdSha256Hash              0      0.00%     13.04% # attempts to use FU when none available
system.cpu0.iq.fu_full::SimdSha256Hash2             0      0.00%     13.04% # attempts to use FU when none available
system.cpu0.iq.fu_full::SimdShaSigma2               0      0.00%     13.04% # attempts to use FU when none available
system.cpu0.iq.fu_full::SimdShaSigma3               0      0.00%     13.04% # attempts to use FU when none available
system.cpu0.iq.fu_full::SimdPredAlu                 0      0.00%     13.04% # attempts to use FU when none available
system.cpu0.iq.fu_full::MemRead                696106     81.04%     94.08% # attempts to use FU when none available
system.cpu0.iq.fu_full::MemWrite                50849      5.92%    100.00% # attempts to use FU when none available
system.cpu0.iq.fu_full::FloatMemRead                0      0.00%    100.00% # attempts to use FU when none available
system.cpu0.iq.fu_full::FloatMemWrite               2      0.00%    100.00% # attempts to use FU when none available
system.cpu0.iq.fu_full::IprAccess                   0      0.00%    100.00% # attempts to use FU when none available
system.cpu0.iq.fu_full::InstPrefetch                0      0.00%    100.00% # attempts to use FU when none available
system.cpu0.iq.int_alu_accesses             931551669                       # Number of integer alu accesses
system.cpu0.iq.int_inst_queue_reads        3433112351                       # Number of integer instruction queue reads
system.cpu0.iq.int_inst_queue_wakeup_accesses    920087744                       # Number of integer instruction queue wakeup accesses
system.cpu0.iq.int_inst_queue_writes       1003906695                       # Number of integer instruction queue writes
system.cpu0.iq.iqInstsAdded                 942585452                       # Number of instructions added to the IQ (excludes non-spec)
system.cpu0.iq.iqInstsIssued                932336114                       # Number of instructions issued
system.cpu0.iq.iqNonSpecInstsAdded            5977177                       # Number of non-speculative instructions added to the IQ
system.cpu0.iq.iqSquashedInstsExamined       55336070                       # Number of squashed instructions iterated over during squash; mainly for profiling
system.cpu0.iq.iqSquashedInstsIssued            38075                       # Number of squashed instructions issued
system.cpu0.iq.iqSquashedNonSpecRemoved       3511034                       # Number of squashed non-spec instructions that were removed
system.cpu0.iq.iqSquashedOperandsExamined     29645634                       # Number of squashed operands that are examined and possibly removed from graph
system.cpu0.iq.issued_per_cycle::samples   1567543211                       # Number of insts issued each cycle
system.cpu0.iq.issued_per_cycle::mean        0.594775                       # Number of insts issued each cycle
system.cpu0.iq.issued_per_cycle::stdev       0.797893                       # Number of insts issued each cycle
system.cpu0.iq.issued_per_cycle::underflows            0      0.00%      0.00% # Number of insts issued each cycle
system.cpu0.iq.issued_per_cycle::0          881913050     56.26%     56.26% # Number of insts issued each cycle
system.cpu0.iq.issued_per_cycle::1          484396691     30.90%     87.16% # Number of insts issued each cycle
system.cpu0.iq.issued_per_cycle::2          167249307     10.67%     97.83% # Number of insts issued each cycle
system.cpu0.iq.issued_per_cycle::3           26768017      1.71%     99.54% # Number of insts issued each cycle
system.cpu0.iq.issued_per_cycle::4            4841971      0.31%     99.85% # Number of insts issued each cycle
system.cpu0.iq.issued_per_cycle::5             666588      0.04%     99.89% # Number of insts issued each cycle
system.cpu0.iq.issued_per_cycle::6            1562567      0.10%     99.99% # Number of insts issued each cycle
system.cpu0.iq.issued_per_cycle::7              99628      0.01%    100.00% # Number of insts issued each cycle
system.cpu0.iq.issued_per_cycle::8              45392      0.00%    100.00% # Number of insts issued each cycle
system.cpu0.iq.issued_per_cycle::overflows            0      0.00%    100.00% # Number of insts issued each cycle
system.cpu0.iq.issued_per_cycle::min_value            0                       # Number of insts issued each cycle
system.cpu0.iq.issued_per_cycle::max_value            8                       # Number of insts issued each cycle
system.cpu0.iq.issued_per_cycle::total     1567543211                       # Number of insts issued each cycle
system.cpu0.iq.rate                          0.547578                       # Inst issue rate
system.cpu0.iq.vec_alu_accesses                     0                       # Number of vector alu accesses
system.cpu0.iq.vec_inst_queue_reads                 0                       # Number of vector instruction queue reads
system.cpu0.iq.vec_inst_queue_wakeup_accesses            0                       # Number of vector instruction queue wakeup accesses
system.cpu0.iq.vec_inst_queue_writes                0                       # Number of vector instruction queue writes
system.cpu0.itb.accesses                            0                       # DTB accesses
system.cpu0.itb.hits                                0                       # DTB hits
system.cpu0.itb.misses                              0                       # DTB misses
system.cpu0.itb.read_accesses                       0                       # DTB read accesses
system.cpu0.itb.read_hits                           0                       # DTB read hits
system.cpu0.itb.read_misses                         0                       # DTB read misses
system.cpu0.itb.write_accesses                      0                       # DTB write accesses
system.cpu0.itb.write_hits                          0                       # DTB write hits
system.cpu0.itb.write_misses                        0                       # DTB write misses
system.cpu0.memDep0.conflictingLoads         15653845                       # Number of conflicting loads.
system.cpu0.memDep0.conflictingStores         2673247                       # Number of conflicting stores.
system.cpu0.memDep0.insertedLoads           302330510                       # Number of loads inserted to the mem dependence unit.
system.cpu0.memDep0.insertedStores          117078494                       # Number of stores inserted to the mem dependence unit.
system.cpu0.misc_regfile_reads                   1517                       # number of misc regfile reads
system.cpu0.misc_regfile_writes                    22                       # number of misc regfile writes
system.cpu0.numCycles                      1702653635                       # number of cpu cycles simulated
system.cpu0.numWorkItemsCompleted                   0                       # number of work items this cpu completed
system.cpu0.numWorkItemsStarted                     0                       # number of work items this cpu started
system.cpu0.quiesceCycles                    24428526                       # Total number of cycles that CPU has spent quiesced or waiting for an interrupt
system.cpu0.rename.BlockCycles              170398085                       # Number of cycles rename is blocking
system.cpu0.rename.CommittedMaps            569160105                       # Number of HB maps that are committed
system.cpu0.rename.IQFullEvents               3561019                       # Number of times rename has blocked due to IQ full
system.cpu0.rename.IdleCycles               700648805                       # Number of cycles rename is idle
system.cpu0.rename.LQFullEvents               4530900                       # Number of times rename has blocked due to LQ full
system.cpu0.rename.ROBFullEvents                 8026                       # Number of times rename has blocked due to ROB full
system.cpu0.rename.RenameLookups           1166586679                       # Number of register rename lookups that rename has made
system.cpu0.rename.RenamedInsts             956481541                       # Number of instructions processed by rename
system.cpu0.rename.RenamedOperands          612976915                       # Number of destination operands rename has renamed
system.cpu0.rename.RunCycles                676824631                       # Number of cycles rename is running
system.cpu0.rename.SQFullEvents               5122721                       # Number of times rename has blocked due to SQ full
system.cpu0.rename.SquashCycles               5446995                       # Number of cycles rename is squashing
system.cpu0.rename.UnblockCycles             14082506                       # Number of cycles rename is unblocking
system.cpu0.rename.UndoneMaps                43816802                       # Number of HB maps that are undone due to squashing
system.cpu0.rename.fp_rename_lookups               62                       # Number of floating rename lookups
system.cpu0.rename.int_rename_lookups      1166586617                       # Number of integer rename lookups
system.cpu0.rename.serializeStallCycles        142189                       # count of cycles rename stalled for serializing inst
system.cpu0.rename.serializingInsts              4629                       # count of serializing insts renamed
system.cpu0.rename.skidInsts                  9664156                       # count of insts added to the skid buffer
system.cpu0.rename.tempSerializingInsts          4616                       # count of temporary serializing insts renamed
system.cpu0.rob.rob_reads                  2476338063                       # The number of ROB reads
system.cpu0.rob.rob_writes                 1907770656                       # The number of ROB writes
system.cpu0.timesIdled                       25470784                       # Number of times that the entire CPU went into an idle state and unscheduled itself
system.cpu0.workload.numSyscalls                 1484                       # Number of system calls
system.cpu1.branchPred.BTBCorrect                   0                       # Number of correct BTB predictions (this stat may not work properly.
system.cpu1.branchPred.BTBHitPct            85.788509                       # BTB Hit Percentage
system.cpu1.branchPred.BTBHits               10711500                       # Number of BTB hits
system.cpu1.branchPred.BTBLookups            12485938                       # Number of BTB lookups
system.cpu1.branchPred.RASInCorrect                 0                       # Number of incorrect RAS predictions.
system.cpu1.branchPred.condIncorrect          2857546                       # Number of conditional branches incorrect
system.cpu1.branchPred.condPredicted         17191246                       # Number of conditional branches predicted
system.cpu1.branchPred.indirectHits            225585                       # Number of indirect target hits.
system.cpu1.branchPred.indirectLookups         318998                       # Number of indirect predictor lookups.
system.cpu1.branchPred.indirectMisses           93413                       # Number of indirect misses.
system.cpu1.branchPred.lookups               19527638                       # Number of BP lookups
system.cpu1.branchPred.usedRAS                      0                       # Number of times the RAS was used to get a target.
system.cpu1.branchPredindirectMispredicted        23871                       # Number of mispredicted indirect branches.
system.cpu1.commit.amos                        819647                       # Number of atomic instructions committed
system.cpu1.commit.branchMispredicts          1976134                       # The number of times a branch was mispredicted
system.cpu1.commit.branches                  10299762                       # Number of branches committed
system.cpu1.commit.bw_lim_events               688410                       # number cycles where commit BW limit reached
system.cpu1.commit.commitNonSpecStalls        2459643                       # The number of times commit has been forced to stall to communicate backwards
system.cpu1.commit.commitSquashedInsts       28677067                       # The number of squashed insts skipped by commit
system.cpu1.commit.committedInsts            41844439                       # Number of instructions committed
system.cpu1.commit.committedOps              42664297                       # Number of ops (including micro ops) committed
system.cpu1.commit.committed_per_cycle::samples    228189285                       # Number of insts commited each cycle
system.cpu1.commit.committed_per_cycle::mean     0.186969                       # Number of insts commited each cycle
system.cpu1.commit.committed_per_cycle::stdev     0.777628                       # Number of insts commited each cycle
system.cpu1.commit.committed_per_cycle::underflows            0      0.00%      0.00% # Number of insts commited each cycle
system.cpu1.commit.committed_per_cycle::0    208315591     91.29%     91.29% # Number of insts commited each cycle
system.cpu1.commit.committed_per_cycle::1      9789451      4.29%     95.58% # Number of insts commited each cycle
system.cpu1.commit.committed_per_cycle::2      4310555      1.89%     97.47% # Number of insts commited each cycle
system.cpu1.commit.committed_per_cycle::3      3144088      1.38%     98.85% # Number of insts commited each cycle
system.cpu1.commit.committed_per_cycle::4      1101681      0.48%     99.33% # Number of insts commited each cycle
system.cpu1.commit.committed_per_cycle::5       206421      0.09%     99.42% # Number of insts commited each cycle
system.cpu1.commit.committed_per_cycle::6       556253      0.24%     99.66% # Number of insts commited each cycle
system.cpu1.commit.committed_per_cycle::7        76835      0.03%     99.70% # Number of insts commited each cycle
system.cpu1.commit.committed_per_cycle::8       688410      0.30%    100.00% # Number of insts commited each cycle
system.cpu1.commit.committed_per_cycle::overflows            0      0.00%    100.00% # Number of insts commited each cycle
system.cpu1.commit.committed_per_cycle::min_value            0                       # Number of insts commited each cycle
system.cpu1.commit.committed_per_cycle::max_value            8                       # Number of insts commited each cycle
system.cpu1.commit.committed_per_cycle::total    228189285                       # Number of insts commited each cycle
system.cpu1.commit.fp_insts                        12                       # Number of committed floating point instructions.
system.cpu1.commit.function_calls              317245                       # Number of function calls committed.
system.cpu1.commit.int_insts                 40178951                       # Number of committed integer instructions.
system.cpu1.commit.loads                     11552329                       # Number of loads committed
system.cpu1.commit.membars                    1639386                       # Number of memory barriers committed
system.cpu1.commit.op_class_0::No_OpClass      1639386      3.84%      3.84% # Class of committed instruction
system.cpu1.commit.op_class_0::IntAlu        24987489     58.57%     62.41% # Class of committed instruction
system.cpu1.commit.op_class_0::IntMult             43      0.00%     62.41% # Class of committed instruction
system.cpu1.commit.op_class_0::IntDiv              86      0.00%     62.41% # Class of committed instruction
system.cpu1.commit.op_class_0::FloatAdd             0      0.00%     62.41% # Class of committed instruction
system.cpu1.commit.op_class_0::FloatCmp             0      0.00%     62.41% # Class of committed instruction
system.cpu1.commit.op_class_0::FloatCvt             0      0.00%     62.41% # Class of committed instruction
system.cpu1.commit.op_class_0::FloatMult            0      0.00%     62.41% # Class of committed instruction
system.cpu1.commit.op_class_0::FloatMultAcc            0      0.00%     62.41% # Class of committed instruction
system.cpu1.commit.op_class_0::FloatDiv             0      0.00%     62.41% # Class of committed instruction
system.cpu1.commit.op_class_0::FloatMisc            0      0.00%     62.41% # Class of committed instruction
system.cpu1.commit.op_class_0::FloatSqrt            0      0.00%     62.41% # Class of committed instruction
system.cpu1.commit.op_class_0::SimdAdd              0      0.00%     62.41% # Class of committed instruction
system.cpu1.commit.op_class_0::SimdAddAcc            0      0.00%     62.41% # Class of committed instruction
system.cpu1.commit.op_class_0::SimdAlu              0      0.00%     62.41% # Class of committed instruction
system.cpu1.commit.op_class_0::SimdCmp              0      0.00%     62.41% # Class of committed instruction
system.cpu1.commit.op_class_0::SimdCvt              0      0.00%     62.41% # Class of committed instruction
system.cpu1.commit.op_class_0::SimdMisc             0      0.00%     62.41% # Class of committed instruction
system.cpu1.commit.op_class_0::SimdMult             0      0.00%     62.41% # Class of committed instruction
system.cpu1.commit.op_class_0::SimdMultAcc            0      0.00%     62.41% # Class of committed instruction
system.cpu1.commit.op_class_0::SimdShift            0      0.00%     62.41% # Class of committed instruction
system.cpu1.commit.op_class_0::SimdShiftAcc            0      0.00%     62.41% # Class of committed instruction
system.cpu1.commit.op_class_0::SimdDiv              0      0.00%     62.41% # Class of committed instruction
system.cpu1.commit.op_class_0::SimdSqrt             0      0.00%     62.41% # Class of committed instruction
system.cpu1.commit.op_class_0::SimdFloatAdd            0      0.00%     62.41% # Class of committed instruction
system.cpu1.commit.op_class_0::SimdFloatAlu            0      0.00%     62.41% # Class of committed instruction
system.cpu1.commit.op_class_0::SimdFloatCmp            0      0.00%     62.41% # Class of committed instruction
system.cpu1.commit.op_class_0::SimdFloatCvt            0      0.00%     62.41% # Class of committed instruction
system.cpu1.commit.op_class_0::SimdFloatDiv            0      0.00%     62.41% # Class of committed instruction
system.cpu1.commit.op_class_0::SimdFloatMisc            0      0.00%     62.41% # Class of committed instruction
system.cpu1.commit.op_class_0::SimdFloatMult            0      0.00%     62.41% # Class of committed instruction
system.cpu1.commit.op_class_0::SimdFloatMultAcc            0      0.00%     62.41% # Class of committed instruction
system.cpu1.commit.op_class_0::SimdFloatSqrt            0      0.00%     62.41% # Class of committed instruction
system.cpu1.commit.op_class_0::SimdReduceAdd            0      0.00%     62.41% # Class of committed instruction
system.cpu1.commit.op_class_0::SimdReduceAlu            0      0.00%     62.41% # Class of committed instruction
system.cpu1.commit.op_class_0::SimdReduceCmp            0      0.00%     62.41% # Class of committed instruction
system.cpu1.commit.op_class_0::SimdFloatReduceAdd            0      0.00%     62.41% # Class of committed instruction
system.cpu1.commit.op_class_0::SimdFloatReduceCmp            0      0.00%     62.41% # Class of committed instruction
system.cpu1.commit.op_class_0::SimdAes              0      0.00%     62.41% # Class of committed instruction
system.cpu1.commit.op_class_0::SimdAesMix            0      0.00%     62.41% # Class of committed instruction
system.cpu1.commit.op_class_0::SimdSha1Hash            0      0.00%     62.41% # Class of committed instruction
system.cpu1.commit.op_class_0::SimdSha1Hash2            0      0.00%     62.41% # Class of committed instruction
system.cpu1.commit.op_class_0::SimdSha256Hash            0      0.00%     62.41% # Class of committed instruction
system.cpu1.commit.op_class_0::SimdSha256Hash2            0      0.00%     62.41% # Class of committed instruction
system.cpu1.commit.op_class_0::SimdShaSigma2            0      0.00%     62.41% # Class of committed instruction
system.cpu1.commit.op_class_0::SimdShaSigma3            0      0.00%     62.41% # Class of committed instruction
system.cpu1.commit.op_class_0::SimdPredAlu            0      0.00%     62.41% # Class of committed instruction
system.cpu1.commit.op_class_0::MemRead       12371976     29.00%     91.41% # Class of committed instruction
system.cpu1.commit.op_class_0::MemWrite       3665305      8.59%    100.00% # Class of committed instruction
system.cpu1.commit.op_class_0::FloatMemRead            0      0.00%    100.00% # Class of committed instruction
system.cpu1.commit.op_class_0::FloatMemWrite           12      0.00%    100.00% # Class of committed instruction
system.cpu1.commit.op_class_0::IprAccess            0      0.00%    100.00% # Class of committed instruction
system.cpu1.commit.op_class_0::InstPrefetch            0      0.00%    100.00% # Class of committed instruction
system.cpu1.commit.op_class_0::total         42664297                       # Class of committed instruction
system.cpu1.commit.refs                      16037293                       # Number of memory references committed
system.cpu1.commit.swp_count                        0                       # Number of s/w prefetches committed
system.cpu1.commit.vec_insts                        0                       # Number of committed Vector instructions.
system.cpu1.committedInsts                   41844439                       # Number of Instructions Simulated
system.cpu1.committedOps                     42664297                       # Number of Ops (including micro ops) Simulated
system.cpu1.cpi                              5.580600                       # CPI: Cycles Per Instruction
system.cpu1.cpi_total                        5.580600                       # CPI: Total CPI of All Threads
system.cpu1.decode.BlockedCycles            173703014                       # Number of cycles decode is blocked
system.cpu1.decode.BranchMispred               885173                       # Number of times decode detected a branch misprediction
system.cpu1.decode.BranchResolved             9712247                       # Number of times decode resolved a branch
system.cpu1.decode.DecodedInsts              79973183                       # Number of instructions handled by decode
system.cpu1.decode.IdleCycles                16063439                       # Number of cycles decode is idle
system.cpu1.decode.RunCycles                 38872398                       # Number of cycles decode is running
system.cpu1.decode.SquashCycles               1976997                       # Number of cycles decode is squashing
system.cpu1.decode.SquashedInsts               923505                       # Number of squashed instructions handled by decode
system.cpu1.decode.UnblockCycles              2306501                       # Number of cycles decode is unblocking
system.cpu1.dtb.accesses                            0                       # DTB accesses
system.cpu1.dtb.hits                                0                       # DTB hits
system.cpu1.dtb.misses                              0                       # DTB misses
system.cpu1.dtb.read_accesses                       0                       # DTB read accesses
system.cpu1.dtb.read_hits                           0                       # DTB read hits
system.cpu1.dtb.read_misses                         0                       # DTB read misses
system.cpu1.dtb.write_accesses                      0                       # DTB write accesses
system.cpu1.dtb.write_hits                          0                       # DTB write hits
system.cpu1.dtb.write_misses                        0                       # DTB write misses
system.cpu1.fetch.Branches                   19527638                       # Number of branches that fetch encountered
system.cpu1.fetch.CacheLines                 12590773                       # Number of cache lines fetched
system.cpu1.fetch.Cycles                    215499809                       # Number of cycles fetch has run and was not squashing or blocked
system.cpu1.fetch.IcacheSquashes               474116                       # Number of outstanding Icache misses that were squashed
system.cpu1.fetch.Insts                      89644536                       # Number of instructions fetch has processed
system.cpu1.fetch.MiscStallCycles                   1                       # Number of cycles fetch has spent waiting on interrupts, or bad addresses, or out of MSHRs
system.cpu1.fetch.SquashCycles                5716818                       # Number of cycles fetch has spent squashing
system.cpu1.fetch.branchRate                 0.083624                       # Number of branch fetches per cycle
system.cpu1.fetch.icacheStallCycles          14564130                       # Number of cycles fetch is stalled on an Icache miss
system.cpu1.fetch.predictedBranches          10937085                       # Number of branches that fetch has predicted taken
system.cpu1.fetch.rate                       0.383889                       # Number of inst fetches per cycle
system.cpu1.fetch.rateDist::samples         232922349                       # Number of instructions fetched each cycle (Total)
system.cpu1.fetch.rateDist::mean             0.397690                       # Number of instructions fetched each cycle (Total)
system.cpu1.fetch.rateDist::stdev            0.892542                       # Number of instructions fetched each cycle (Total)
system.cpu1.fetch.rateDist::underflows              0      0.00%      0.00% # Number of instructions fetched each cycle (Total)
system.cpu1.fetch.rateDist::0               178619506     76.69%     76.69% # Number of instructions fetched each cycle (Total)
system.cpu1.fetch.rateDist::1                31498343     13.52%     90.21% # Number of instructions fetched each cycle (Total)
system.cpu1.fetch.rateDist::2                14311364      6.14%     96.35% # Number of instructions fetched each cycle (Total)
system.cpu1.fetch.rateDist::3                 4519562      1.94%     98.29% # Number of instructions fetched each cycle (Total)
system.cpu1.fetch.rateDist::4                 1768950      0.76%     99.05% # Number of instructions fetched each cycle (Total)
system.cpu1.fetch.rateDist::5                 1413346      0.61%     99.66% # Number of instructions fetched each cycle (Total)
system.cpu1.fetch.rateDist::6                  759009      0.33%     99.99% # Number of instructions fetched each cycle (Total)
system.cpu1.fetch.rateDist::7                    3644      0.00%     99.99% # Number of instructions fetched each cycle (Total)
system.cpu1.fetch.rateDist::8                   28625      0.01%    100.00% # Number of instructions fetched each cycle (Total)
system.cpu1.fetch.rateDist::overflows               0      0.00%    100.00% # Number of instructions fetched each cycle (Total)
system.cpu1.fetch.rateDist::min_value               0                       # Number of instructions fetched each cycle (Total)
system.cpu1.fetch.rateDist::max_value               8                       # Number of instructions fetched each cycle (Total)
system.cpu1.fetch.rateDist::total           232922349                       # Number of instructions fetched each cycle (Total)
system.cpu1.fp_regfile_reads                       12                       # number of floating regfile reads
system.cpu1.idleCycles                         594712                       # Total number of cycles that the CPU has spent unscheduled due to idling
system.cpu1.iew.branchMispredicts             2013498                       # Number of branch mispredicts detected at execute
system.cpu1.iew.exec_branches                13263256                       # Number of branches executed
system.cpu1.iew.exec_nop                            0                       # number of nop insts executed
system.cpu1.iew.exec_rate                    0.222250                       # Inst execution rate
system.cpu1.iew.exec_refs                    18061231                       # number of memory reference insts executed
system.cpu1.iew.exec_stores                   5265447                       # Number of stores executed
system.cpu1.iew.exec_swp                            0                       # number of swp insts executed
system.cpu1.iew.iewBlockCycles              158959421                       # Number of cycles IEW is blocking
system.cpu1.iew.iewDispLoadInsts             19647311                       # Number of dispatched load instructions
system.cpu1.iew.iewDispNonSpecInsts           2004984                       # Number of dispatched non-speculative instructions
system.cpu1.iew.iewDispSquashedInsts          1390815                       # Number of squashed instructions skipped by dispatch
system.cpu1.iew.iewDispStoreInsts             8117807                       # Number of dispatched store instructions
system.cpu1.iew.iewDispatchedInsts           71329190                       # Number of instructions dispatched to IQ
system.cpu1.iew.iewExecLoadInsts             12795784                       # Number of load instructions executed
system.cpu1.iew.iewExecSquashedInsts          1559432                       # Number of squashed instructions skipped in execute
system.cpu1.iew.iewExecutedInsts             51899111                       # Number of executed instructions
system.cpu1.iew.iewIQFullEvents                790135                       # Number of times the IQ has become full, causing a stall
system.cpu1.iew.iewIdleCycles                       0                       # Number of cycles IEW is idle
system.cpu1.iew.iewLSQFullEvents               621959                       # Number of times the LSQ has become full, causing a stall
system.cpu1.iew.iewSquashCycles               1976997                       # Number of cycles IEW is squashing
system.cpu1.iew.iewUnblockCycles              2065440                       # Number of cycles IEW is unblocking
system.cpu1.iew.lsq.thread0.blockedLoads            0                       # Number of blocked loads due to partial load-store forwarding
system.cpu1.iew.lsq.thread0.cacheBlocked        23037                       # Number of times an access to memory failed due to the cache being blocked
system.cpu1.iew.lsq.thread0.forwLoads          201140                       # Number of loads that had data forwarded from stores
system.cpu1.iew.lsq.thread0.ignoredResponses        12882                       # Number of memory responses ignored because the instruction is squashed
system.cpu1.iew.lsq.thread0.invAddrLoads            0                       # Number of loads ignored due to an invalid address
system.cpu1.iew.lsq.thread0.invAddrSwpfs            0                       # Number of software prefetches ignored due to an invalid address
system.cpu1.iew.lsq.thread0.memOrderViolation         1642                       # Number of memory ordering violations
system.cpu1.iew.lsq.thread0.rescheduledLoads         1606                       # Number of loads that were rescheduled
system.cpu1.iew.lsq.thread0.squashedLoads      8094982                       # Number of loads squashed
system.cpu1.iew.lsq.thread0.squashedStores      3632843                       # Number of stores squashed
system.cpu1.iew.memOrderViolationEvents          1642                       # Number of memory order violations
system.cpu1.iew.predictedNotTakenIncorrect       624838                       # Number of branches that were predicted not taken incorrectly
system.cpu1.iew.predictedTakenIncorrect       1388660                       # Number of branches that were predicted taken incorrectly
system.cpu1.iew.wb_consumers                 24818556                       # num instructions consuming a value
system.cpu1.iew.wb_count                     51141140                       # cumulative count of insts written-back
system.cpu1.iew.wb_fanout                    0.786843                       # average fanout of values written-back
system.cpu1.iew.wb_producers                 19528311                       # num instructions producing a value
system.cpu1.iew.wb_rate                      0.219004                       # insts written-back per cycle
system.cpu1.iew.wb_sent                      51161537                       # cumulative count of insts sent to commit
system.cpu1.int_regfile_reads                66929661                       # number of integer regfile reads
system.cpu1.int_regfile_writes               32001587                       # number of integer regfile writes
system.cpu1.ipc                              0.179192                       # IPC: Instructions Per Cycle
system.cpu1.ipc_total                        0.179192                       # IPC: Total IPC of All Threads
system.cpu1.iq.FU_type_0::No_OpClass          1639586      3.07%      3.07% # Type of FU issued
system.cpu1.iq.FU_type_0::IntAlu             33257331     62.21%     65.28% # Type of FU issued
system.cpu1.iq.FU_type_0::IntMult                  55      0.00%     65.28% # Type of FU issued
system.cpu1.iq.FU_type_0::IntDiv                   86      0.00%     65.28% # Type of FU issued
system.cpu1.iq.FU_type_0::FloatAdd                  0      0.00%     65.28% # Type of FU issued
system.cpu1.iq.FU_type_0::FloatCmp                  0      0.00%     65.28% # Type of FU issued
system.cpu1.iq.FU_type_0::FloatCvt                  0      0.00%     65.28% # Type of FU issued
system.cpu1.iq.FU_type_0::FloatMult                 0      0.00%     65.28% # Type of FU issued
system.cpu1.iq.FU_type_0::FloatMultAcc              0      0.00%     65.28% # Type of FU issued
system.cpu1.iq.FU_type_0::FloatDiv                  0      0.00%     65.28% # Type of FU issued
system.cpu1.iq.FU_type_0::FloatMisc                 0      0.00%     65.28% # Type of FU issued
system.cpu1.iq.FU_type_0::FloatSqrt                 0      0.00%     65.28% # Type of FU issued
system.cpu1.iq.FU_type_0::SimdAdd                   0      0.00%     65.28% # Type of FU issued
system.cpu1.iq.FU_type_0::SimdAddAcc                0      0.00%     65.28% # Type of FU issued
system.cpu1.iq.FU_type_0::SimdAlu                   0      0.00%     65.28% # Type of FU issued
system.cpu1.iq.FU_type_0::SimdCmp                   0      0.00%     65.28% # Type of FU issued
system.cpu1.iq.FU_type_0::SimdCvt                   0      0.00%     65.28% # Type of FU issued
system.cpu1.iq.FU_type_0::SimdMisc                  0      0.00%     65.28% # Type of FU issued
system.cpu1.iq.FU_type_0::SimdMult                  0      0.00%     65.28% # Type of FU issued
system.cpu1.iq.FU_type_0::SimdMultAcc               0      0.00%     65.28% # Type of FU issued
system.cpu1.iq.FU_type_0::SimdShift                 0      0.00%     65.28% # Type of FU issued
system.cpu1.iq.FU_type_0::SimdShiftAcc              0      0.00%     65.28% # Type of FU issued
system.cpu1.iq.FU_type_0::SimdDiv                   0      0.00%     65.28% # Type of FU issued
system.cpu1.iq.FU_type_0::SimdSqrt                  0      0.00%     65.28% # Type of FU issued
system.cpu1.iq.FU_type_0::SimdFloatAdd              0      0.00%     65.28% # Type of FU issued
system.cpu1.iq.FU_type_0::SimdFloatAlu              0      0.00%     65.28% # Type of FU issued
system.cpu1.iq.FU_type_0::SimdFloatCmp              0      0.00%     65.28% # Type of FU issued
system.cpu1.iq.FU_type_0::SimdFloatCvt              0      0.00%     65.28% # Type of FU issued
system.cpu1.iq.FU_type_0::SimdFloatDiv              0      0.00%     65.28% # Type of FU issued
system.cpu1.iq.FU_type_0::SimdFloatMisc             0      0.00%     65.28% # Type of FU issued
system.cpu1.iq.FU_type_0::SimdFloatMult             0      0.00%     65.28% # Type of FU issued
system.cpu1.iq.FU_type_0::SimdFloatMultAcc            0      0.00%     65.28% # Type of FU issued
system.cpu1.iq.FU_type_0::SimdFloatSqrt             0      0.00%     65.28% # Type of FU issued
system.cpu1.iq.FU_type_0::SimdReduceAdd             0      0.00%     65.28% # Type of FU issued
system.cpu1.iq.FU_type_0::SimdReduceAlu             0      0.00%     65.28% # Type of FU issued
system.cpu1.iq.FU_type_0::SimdReduceCmp             0      0.00%     65.28% # Type of FU issued
system.cpu1.iq.FU_type_0::SimdFloatReduceAdd            0      0.00%     65.28% # Type of FU issued
system.cpu1.iq.FU_type_0::SimdFloatReduceCmp            0      0.00%     65.28% # Type of FU issued
system.cpu1.iq.FU_type_0::SimdAes                   0      0.00%     65.28% # Type of FU issued
system.cpu1.iq.FU_type_0::SimdAesMix                0      0.00%     65.28% # Type of FU issued
system.cpu1.iq.FU_type_0::SimdSha1Hash              0      0.00%     65.28% # Type of FU issued
system.cpu1.iq.FU_type_0::SimdSha1Hash2             0      0.00%     65.28% # Type of FU issued
system.cpu1.iq.FU_type_0::SimdSha256Hash            0      0.00%     65.28% # Type of FU issued
system.cpu1.iq.FU_type_0::SimdSha256Hash2            0      0.00%     65.28% # Type of FU issued
system.cpu1.iq.FU_type_0::SimdShaSigma2             0      0.00%     65.28% # Type of FU issued
system.cpu1.iq.FU_type_0::SimdShaSigma3             0      0.00%     65.28% # Type of FU issued
system.cpu1.iq.FU_type_0::SimdPredAlu               0      0.00%     65.28% # Type of FU issued
system.cpu1.iq.FU_type_0::MemRead            13957418     26.11%     91.39% # Type of FU issued
system.cpu1.iq.FU_type_0::MemWrite            4604055      8.61%    100.00% # Type of FU issued
system.cpu1.iq.FU_type_0::FloatMemRead              0      0.00%    100.00% # Type of FU issued
system.cpu1.iq.FU_type_0::FloatMemWrite            12      0.00%    100.00% # Type of FU issued
system.cpu1.iq.FU_type_0::IprAccess                 0      0.00%    100.00% # Type of FU issued
system.cpu1.iq.FU_type_0::InstPrefetch              0      0.00%    100.00% # Type of FU issued
system.cpu1.iq.FU_type_0::total              53458543                       # Type of FU issued
system.cpu1.iq.fp_alu_accesses                     14                       # Number of floating point alu accesses
system.cpu1.iq.fp_inst_queue_reads                 26                       # Number of floating instruction queue reads
system.cpu1.iq.fp_inst_queue_wakeup_accesses           12                       # Number of floating instruction queue wakeup accesses
system.cpu1.iq.fp_inst_queue_writes                12                       # Number of floating instruction queue writes
system.cpu1.iq.fu_busy_cnt                     851930                       # FU busy when requested
system.cpu1.iq.fu_busy_rate                  0.015936                       # FU busy rate (busy events/executed inst)
system.cpu1.iq.fu_full::No_OpClass                  0      0.00%      0.00% # attempts to use FU when none available
system.cpu1.iq.fu_full::IntAlu                 101704     11.94%     11.94% # attempts to use FU when none available
system.cpu1.iq.fu_full::IntMult                     0      0.00%     11.94% # attempts to use FU when none available
system.cpu1.iq.fu_full::IntDiv                      0      0.00%     11.94% # attempts to use FU when none available
system.cpu1.iq.fu_full::FloatAdd                    0      0.00%     11.94% # attempts to use FU when none available
system.cpu1.iq.fu_full::FloatCmp                    0      0.00%     11.94% # attempts to use FU when none available
system.cpu1.iq.fu_full::FloatCvt                    0      0.00%     11.94% # attempts to use FU when none available
system.cpu1.iq.fu_full::FloatMult                   0      0.00%     11.94% # attempts to use FU when none available
system.cpu1.iq.fu_full::FloatMultAcc                0      0.00%     11.94% # attempts to use FU when none available
system.cpu1.iq.fu_full::FloatDiv                    0      0.00%     11.94% # attempts to use FU when none available
system.cpu1.iq.fu_full::FloatMisc                   0      0.00%     11.94% # attempts to use FU when none available
system.cpu1.iq.fu_full::FloatSqrt                   0      0.00%     11.94% # attempts to use FU when none available
system.cpu1.iq.fu_full::SimdAdd                     0      0.00%     11.94% # attempts to use FU when none available
system.cpu1.iq.fu_full::SimdAddAcc                  0      0.00%     11.94% # attempts to use FU when none available
system.cpu1.iq.fu_full::SimdAlu                     0      0.00%     11.94% # attempts to use FU when none available
system.cpu1.iq.fu_full::SimdCmp                     0      0.00%     11.94% # attempts to use FU when none available
system.cpu1.iq.fu_full::SimdCvt                     0      0.00%     11.94% # attempts to use FU when none available
system.cpu1.iq.fu_full::SimdMisc                    0      0.00%     11.94% # attempts to use FU when none available
system.cpu1.iq.fu_full::SimdMult                    0      0.00%     11.94% # attempts to use FU when none available
system.cpu1.iq.fu_full::SimdMultAcc                 0      0.00%     11.94% # attempts to use FU when none available
system.cpu1.iq.fu_full::SimdShift                   0      0.00%     11.94% # attempts to use FU when none available
system.cpu1.iq.fu_full::SimdShiftAcc                0      0.00%     11.94% # attempts to use FU when none available
system.cpu1.iq.fu_full::SimdDiv                     0      0.00%     11.94% # attempts to use FU when none available
system.cpu1.iq.fu_full::SimdSqrt                    0      0.00%     11.94% # attempts to use FU when none available
system.cpu1.iq.fu_full::SimdFloatAdd                0      0.00%     11.94% # attempts to use FU when none available
system.cpu1.iq.fu_full::SimdFloatAlu                0      0.00%     11.94% # attempts to use FU when none available
system.cpu1.iq.fu_full::SimdFloatCmp                0      0.00%     11.94% # attempts to use FU when none available
system.cpu1.iq.fu_full::SimdFloatCvt                0      0.00%     11.94% # attempts to use FU when none available
system.cpu1.iq.fu_full::SimdFloatDiv                0      0.00%     11.94% # attempts to use FU when none available
system.cpu1.iq.fu_full::SimdFloatMisc               0      0.00%     11.94% # attempts to use FU when none available
system.cpu1.iq.fu_full::SimdFloatMult               0      0.00%     11.94% # attempts to use FU when none available
system.cpu1.iq.fu_full::SimdFloatMultAcc            0      0.00%     11.94% # attempts to use FU when none available
system.cpu1.iq.fu_full::SimdFloatSqrt               0      0.00%     11.94% # attempts to use FU when none available
system.cpu1.iq.fu_full::SimdReduceAdd               0      0.00%     11.94% # attempts to use FU when none available
system.cpu1.iq.fu_full::SimdReduceAlu               0      0.00%     11.94% # attempts to use FU when none available
system.cpu1.iq.fu_full::SimdReduceCmp               0      0.00%     11.94% # attempts to use FU when none available
system.cpu1.iq.fu_full::SimdFloatReduceAdd            0      0.00%     11.94% # attempts to use FU when none available
system.cpu1.iq.fu_full::SimdFloatReduceCmp            0      0.00%     11.94% # attempts to use FU when none available
system.cpu1.iq.fu_full::SimdAes                     0      0.00%     11.94% # attempts to use FU when none available
system.cpu1.iq.fu_full::SimdAesMix                  0      0.00%     11.94% # attempts to use FU when none available
system.cpu1.iq.fu_full::SimdSha1Hash                0      0.00%     11.94% # attempts to use FU when none available
system.cpu1.iq.fu_full::SimdSha1Hash2               0      0.00%     11.94% # attempts to use FU when none available
system.cpu1.iq.fu_full::SimdSha256Hash              0      0.00%     11.94% # attempts to use FU when none available
system.cpu1.iq.fu_full::SimdSha256Hash2             0      0.00%     11.94% # attempts to use FU when none available
system.cpu1.iq.fu_full::SimdShaSigma2               0      0.00%     11.94% # attempts to use FU when none available
system.cpu1.iq.fu_full::SimdShaSigma3               0      0.00%     11.94% # attempts to use FU when none available
system.cpu1.iq.fu_full::SimdPredAlu                 0      0.00%     11.94% # attempts to use FU when none available
system.cpu1.iq.fu_full::MemRead                667228     78.32%     90.26% # attempts to use FU when none available
system.cpu1.iq.fu_full::MemWrite                82996      9.74%    100.00% # attempts to use FU when none available
[...]
system.cpu1.dcache.WriteReq_mshr_miss_rate::total     0.034068                       # mshr miss rate for WriteReq accesses
system.cpu1.dcache.WriteReq_avg_mshr_miss_latency::.cpu1.data 58420.292400                       # average WriteReq mshr miss latency
system.cpu1.dcache.WriteReq_avg_mshr_miss_latency::total 58420.292400                       # average WriteReq mshr miss latency
system.cpu1.dcache.LoadLockedReq_hits::.cpu1.data          981                       # number of LoadLockedReq hits
system.cpu1.dcache.LoadLockedReq_hits::total          981                       # number of LoadLockedReq hits
system.cpu1.dcache.LoadLockedReq_misses::.cpu1.data          316                       # number of LoadLockedReq misses
system.cpu1.dcache.LoadLockedReq_misses::total          316                       # number of LoadLockedReq misses
system.cpu1.dcache.LoadLockedReq_miss_latency::.cpu1.data     13614000                       # number of LoadLockedReq miss cycles
system.cpu1.dcache.LoadLockedReq_miss_latency::total     13614000                       # number of LoadLockedReq miss cycles
system.cpu1.dcache.LoadLockedReq_accesses::.cpu1.data         1297                       # number of LoadLockedReq accesses(hits+misses)
system.cpu1.dcache.LoadLockedReq_accesses::total         1297                       # number of LoadLockedReq accesses(hits+misses)
system.cpu1.dcache.LoadLockedReq_miss_rate::.cpu1.data     0.243639                       # miss rate for LoadLockedReq accesses
system.cpu1.dcache.LoadLockedReq_miss_rate::total     0.243639                       # miss rate for LoadLockedReq accesses
system.cpu1.dcache.LoadLockedReq_avg_miss_latency::.cpu1.data 43082.278481                       # average LoadLockedReq miss latency
system.cpu1.dcache.LoadLockedReq_avg_miss_latency::total 43082.278481                       # average LoadLockedReq miss latency
system.cpu1.dcache.LoadLockedReq_mshr_hits::.cpu1.data          154                       # number of LoadLockedReq MSHR hits
system.cpu1.dcache.LoadLockedReq_mshr_hits::total          154                       # number of LoadLockedReq MSHR hits
system.cpu1.dcache.LoadLockedReq_mshr_misses::.cpu1.data          162                       # number of LoadLockedReq MSHR misses
system.cpu1.dcache.LoadLockedReq_mshr_misses::total          162                       # number of LoadLockedReq MSHR misses
system.cpu1.dcache.LoadLockedReq_mshr_miss_latency::.cpu1.data      1179500                       # number of LoadLockedReq MSHR miss cycles
system.cpu1.dcache.LoadLockedReq_mshr_miss_latency::total      1179500                       # number of LoadLockedReq MSHR miss cycles
system.cpu1.dcache.LoadLockedReq_mshr_miss_rate::.cpu1.data     0.124904                       # mshr miss rate for LoadLockedReq accesses
system.cpu1.dcache.LoadLockedReq_mshr_miss_rate::total     0.124904                       # mshr miss rate for LoadLockedReq accesses
system.cpu1.dcache.LoadLockedReq_avg_mshr_miss_latency::.cpu1.data  7280.864198                       # average LoadLockedReq mshr miss latency
system.cpu1.dcache.LoadLockedReq_avg_mshr_miss_latency::total  7280.864198                       # average LoadLockedReq mshr miss latency
system.cpu1.dcache.StoreCondReq_hits::.cpu1.data          529                       # number of StoreCondReq hits
system.cpu1.dcache.StoreCondReq_hits::total          529                       # number of StoreCondReq hits
system.cpu1.dcache.StoreCondReq_misses::.cpu1.data          460                       # number of StoreCondReq misses
system.cpu1.dcache.StoreCondReq_misses::total          460                       # number of StoreCondReq misses
system.cpu1.dcache.StoreCondReq_miss_latency::.cpu1.data      2497000                       # number of StoreCondReq miss cycles
system.cpu1.dcache.StoreCondReq_miss_latency::total      2497000                       # number of StoreCondReq miss cycles
system.cpu1.dcache.StoreCondReq_accesses::.cpu1.data          989                       # number of StoreCondReq accesses(hits+misses)
system.cpu1.dcache.StoreCondReq_accesses::total          989                       # number of StoreCondReq accesses(hits+misses)
system.cpu1.dcache.StoreCondReq_miss_rate::.cpu1.data     0.465116                       # miss rate for StoreCondReq accesses
system.cpu1.dcache.StoreCondReq_miss_rate::total     0.465116                       # miss rate for StoreCondReq accesses
system.cpu1.dcache.StoreCondReq_avg_miss_latency::.cpu1.data  5428.260870                       # average StoreCondReq miss latency
system.cpu1.dcache.StoreCondReq_avg_miss_latency::total  5428.260870                       # average StoreCondReq miss latency
system.cpu1.dcache.StoreCondReq_mshr_misses::.cpu1.data          459                       # number of StoreCondReq MSHR misses
system.cpu1.dcache.StoreCondReq_mshr_misses::total          459                       # number of StoreCondReq MSHR misses
system.cpu1.dcache.StoreCondReq_mshr_miss_latency::.cpu1.data      2118000                       # number of StoreCondReq MSHR miss cycles
system.cpu1.dcache.StoreCondReq_mshr_miss_latency::total      2118000                       # number of StoreCondReq MSHR miss cycles
system.cpu1.dcache.StoreCondReq_mshr_miss_rate::.cpu1.data     0.464105                       # mshr miss rate for StoreCondReq accesses
system.cpu1.dcache.StoreCondReq_mshr_miss_rate::total     0.464105                       # mshr miss rate for StoreCondReq accesses
system.cpu1.dcache.StoreCondReq_avg_mshr_miss_latency::.cpu1.data  4614.379085                       # average StoreCondReq mshr miss latency
system.cpu1.dcache.StoreCondReq_avg_mshr_miss_latency::total  4614.379085                       # average StoreCondReq mshr miss latency
system.cpu1.dcache.StoreCondFailReq_miss_latency::.cpu1.data      1312000                       # number of StoreCondFailReq miss cycles
system.cpu1.dcache.StoreCondFailReq_miss_latency::total      1312000                       # number of StoreCondFailReq miss cycles
system.cpu1.dcache.StoreCondFailReq_avg_miss_latency::.cpu1.data          inf                       # average StoreCondFailReq miss latency
system.cpu1.dcache.StoreCondFailReq_avg_miss_latency::total          inf                       # average StoreCondFailReq miss latency
system.cpu1.dcache.StoreCondFailReq_mshr_miss_latency::.cpu1.data      1232000                       # number of StoreCondFailReq MSHR miss cycles
system.cpu1.dcache.StoreCondFailReq_mshr_miss_latency::total      1232000                       # number of StoreCondFailReq MSHR miss cycles
system.cpu1.dcache.StoreCondFailReq_avg_mshr_miss_latency::.cpu1.data          inf                       # average StoreCondFailReq mshr miss latency
system.cpu1.dcache.StoreCondFailReq_avg_mshr_miss_latency::total          inf                       # average StoreCondFailReq mshr miss latency
system.cpu1.dcache.SwapReq_hits::.cpu1.data          240                       # number of SwapReq hits
system.cpu1.dcache.SwapReq_hits::total            240                       # number of SwapReq hits
system.cpu1.dcache.SwapReq_misses::.cpu1.data          619                       # number of SwapReq misses
system.cpu1.dcache.SwapReq_misses::total          619                       # number of SwapReq misses
system.cpu1.dcache.SwapReq_miss_latency::.cpu1.data      2966500                       # number of SwapReq miss cycles
system.cpu1.dcache.SwapReq_miss_latency::total      2966500                       # number of SwapReq miss cycles
system.cpu1.dcache.SwapReq_accesses::.cpu1.data          859                       # number of SwapReq accesses(hits+misses)
system.cpu1.dcache.SwapReq_accesses::total          859                       # number of SwapReq accesses(hits+misses)
system.cpu1.dcache.SwapReq_miss_rate::.cpu1.data     0.720605                       # miss rate for SwapReq accesses
system.cpu1.dcache.SwapReq_miss_rate::total     0.720605                       # miss rate for SwapReq accesses
system.cpu1.dcache.SwapReq_avg_miss_latency::.cpu1.data  4792.407108                       # average SwapReq miss latency
system.cpu1.dcache.SwapReq_avg_miss_latency::total  4792.407108                       # average SwapReq miss latency
system.cpu1.dcache.SwapReq_mshr_misses::.cpu1.data          619                       # number of SwapReq MSHR misses
system.cpu1.dcache.SwapReq_mshr_misses::total          619                       # number of SwapReq MSHR misses
system.cpu1.dcache.SwapReq_mshr_miss_latency::.cpu1.data      2347500                       # number of SwapReq MSHR miss cycles
system.cpu1.dcache.SwapReq_mshr_miss_latency::total      2347500                       # number of SwapReq MSHR miss cycles
system.cpu1.dcache.SwapReq_mshr_miss_rate::.cpu1.data     0.720605                       # mshr miss rate for SwapReq accesses
system.cpu1.dcache.SwapReq_mshr_miss_rate::total     0.720605                       # mshr miss rate for SwapReq accesses
system.cpu1.dcache.SwapReq_avg_mshr_miss_latency::.cpu1.data  3792.407108                       # average SwapReq mshr miss latency
system.cpu1.dcache.SwapReq_avg_mshr_miss_latency::total  3792.407108                       # average SwapReq mshr miss latency
system.cpu1.dcache.tags.pwrStateResidencyTicks::UNDEFINED 635449538000                       # Cumulative time (in ticks) in various power states
system.cpu1.dcache.tags.tagsinuse           31.938386                       # Cycle average of tags in use
system.cpu1.dcache.tags.total_refs           53701903                       # Total number of references to valid blocks.
system.cpu1.dcache.tags.sampled_refs         14408379                       # Sample count of references to valid blocks.
system.cpu1.dcache.tags.avg_refs             3.727130                       # Average number of references to valid blocks.
system.cpu1.dcache.tags.warmup_cycle                0                       # Cycle when the warmup percentage was hit.
system.cpu1.dcache.tags.occ_blocks::.cpu1.data    31.938386                       # Average occupied blocks per requestor
system.cpu1.dcache.tags.occ_percent::.cpu1.data     0.998075                       # Average percentage of cache occupancy
system.cpu1.dcache.tags.occ_percent::total     0.998075                       # Average percentage of cache occupancy
system.cpu1.dcache.tags.occ_task_id_blocks::1024           27                       # Occupied blocks per task id
system.cpu1.dcache.tags.age_task_id_blocks_1024::1           27                       # Occupied blocks per task id
system.cpu1.dcache.tags.occ_task_id_percent::1024     0.843750                       # Percentage of cache occupancy per task id
system.cpu1.dcache.tags.tag_accesses        134153558                       # Number of tag accesses
system.cpu1.dcache.tags.data_accesses       134153558                       # Number of data accesses
system.cpu_clk_domain.clock                       500                       # Clock period in ticks
system.tol2bus.pwrStateResidencyTicks::UNDEFINED 635449538000                       # Cumulative time (in ticks) in various power states
system.tol2bus.trans_dist::ReadResp          48669910                       # Transaction distribution
system.tol2bus.trans_dist::ReadRespWithInvalidate            3                       # Transaction distribution
system.tol2bus.trans_dist::WritebackDirty      1713832                       # Transaction distribution
system.tol2bus.trans_dist::WritebackClean     47791275                       # Transaction distribution
system.tol2bus.trans_dist::CleanEvict       134314645                       # Transaction distribution
system.tol2bus.trans_dist::HardPFReq         76482883                       # Transaction distribution
system.tol2bus.trans_dist::HardPFResp              21                       # Transaction distribution
system.tol2bus.trans_dist::UpgradeReq           27320                       # Transaction distribution
system.tol2bus.trans_dist::SCUpgradeReq          1764                       # Transaction distribution
system.tol2bus.trans_dist::UpgradeResp          29084                       # Transaction distribution
system.tol2bus.trans_dist::SCUpgradeFailReq          204                       # Transaction distribution
system.tol2bus.trans_dist::UpgradeFailResp          204                       # Transaction distribution
system.tol2bus.trans_dist::ReadExReq            66136                       # Transaction distribution
system.tol2bus.trans_dist::ReadExResp           66136                       # Transaction distribution
system.tol2bus.trans_dist::ReadCleanReq         31473                       # Transaction distribution
system.tol2bus.trans_dist::ReadSharedReq     48638440                       # Transaction distribution
system.tol2bus.trans_dist::InvalidateReq            5                       # Transaction distribution
system.tol2bus.trans_dist::InvalidateResp            5                       # Transaction distribution
system.tol2bus.pkt_count_system.cpu0.icache.mem_side::system.l2.cpu_side        55293                       # Packet count per connected master and slave (bytes)
system.tol2bus.pkt_count_system.cpu0.dcache.mem_side::system.l2.cpu_side     59878350                       # Packet count per connected master and slave (bytes)
system.tol2bus.pkt_count_system.cpu1.icache.mem_side::system.l2.cpu_side        13449                       # Packet count per connected master and slave (bytes)
system.tol2bus.pkt_count_system.cpu1.dcache.mem_side::system.l2.cpu_side     43218870                       # Packet count per connected master and slave (bytes)
system.tol2bus.pkt_count_system.cpu2.icache.mem_side::system.l2.cpu_side        12828                       # Packet count per connected master and slave (bytes)
system.tol2bus.pkt_count_system.cpu2.dcache.mem_side::system.l2.cpu_side     27676755                       # Packet count per connected master and slave (bytes)
system.tol2bus.pkt_count_system.cpu3.icache.mem_side::system.l2.cpu_side        12849                       # Packet count per connected master and slave (bytes)
system.tol2bus.pkt_count_system.cpu3.dcache.mem_side::system.l2.cpu_side     15322833                       # Packet count per connected master and slave (bytes)
system.tol2bus.pkt_count::total             146191227                       # Packet count per connected master and slave (bytes)
system.tol2bus.pkt_size_system.cpu0.icache.mem_side::system.l2.cpu_side      2359168                       # Cumulative packet size per connected master and slave (bytes)
system.tol2bus.pkt_size_system.cpu0.dcache.mem_side::system.l2.cpu_side   2553811264                       # Cumulative packet size per connected master and slave (bytes)
system.tol2bus.pkt_size_system.cpu1.icache.mem_side::system.l2.cpu_side       573824                       # Cumulative packet size per connected master and slave (bytes)
system.tol2bus.pkt_size_system.cpu1.dcache.mem_side::system.l2.cpu_side   1843074560                       # Cumulative packet size per connected master and slave (bytes)
system.tol2bus.pkt_size_system.cpu2.icache.mem_side::system.l2.cpu_side       547328                       # Cumulative packet size per connected master and slave (bytes)
system.tol2bus.pkt_size_system.cpu2.dcache.mem_side::system.l2.cpu_side   1179983616                       # Cumulative packet size per connected master and slave (bytes)
system.tol2bus.pkt_size_system.cpu3.icache.mem_side::system.l2.cpu_side       548224                       # Cumulative packet size per connected master and slave (bytes)
system.tol2bus.pkt_size_system.cpu3.dcache.mem_side::system.l2.cpu_side    652995712                       # Cumulative packet size per connected master and slave (bytes)
system.tol2bus.pkt_size::total             6233893696                       # Cumulative packet size per connected master and slave (bytes)
system.tol2bus.snoops                       211642134                       # Total snoops (count)
system.tol2bus.snoopTraffic                  53556032                       # Total snoop traffic (bytes)
system.tol2bus.snoop_fanout::samples        263037599                       # Request fanout histogram
system.tol2bus.snoop_fanout::mean            0.211479                       # Request fanout histogram
system.tol2bus.snoop_fanout::stdev           0.465606                       # Request fanout histogram
system.tol2bus.snoop_fanout::underflows             0      0.00%      0.00% # Request fanout histogram
system.tol2bus.snoop_fanout::0              212864882     80.93%     80.93% # Request fanout histogram
system.tol2bus.snoop_fanout::1               45677797     17.37%     98.29% # Request fanout histogram
system.tol2bus.snoop_fanout::2                3702334      1.41%     99.70% # Request fanout histogram
system.tol2bus.snoop_fanout::3                 625858      0.24%     99.94% # Request fanout histogram
system.tol2bus.snoop_fanout::4                 166728      0.06%    100.00% # Request fanout histogram
system.tol2bus.snoop_fanout::5                      0      0.00%    100.00% # Request fanout histogram
system.tol2bus.snoop_fanout::6                      0      0.00%    100.00% # Request fanout histogram
system.tol2bus.snoop_fanout::7                      0      0.00%    100.00% # Request fanout histogram
system.tol2bus.snoop_fanout::8                      0      0.00%    100.00% # Request fanout histogram
system.tol2bus.snoop_fanout::overflows              0      0.00%    100.00% # Request fanout histogram
system.tol2bus.snoop_fanout::min_value              0                       # Request fanout histogram
system.tol2bus.snoop_fanout::max_value              4                       # Request fanout histogram
system.tol2bus.snoop_fanout::total          263037599                       # Request fanout histogram
system.tol2bus.reqLayer0.occupancy       103299680518                       # Layer occupancy (ticks)
system.tol2bus.reqLayer0.utilization             16.3                       # Layer utilization (%)
system.tol2bus.respLayer5.occupancy       13881097908                       # Layer occupancy (ticks)
system.tol2bus.respLayer5.utilization             2.2                       # Layer utilization (%)
system.tol2bus.respLayer4.occupancy           6690362                       # Layer occupancy (ticks)
system.tol2bus.respLayer4.utilization             0.0                       # Layer utilization (%)
system.tol2bus.respLayer7.occupancy        7689438714                       # Layer occupancy (ticks)
system.tol2bus.respLayer7.utilization             1.2                       # Layer utilization (%)
system.tol2bus.respLayer6.occupancy           6633964                       # Layer occupancy (ticks)
system.tol2bus.respLayer6.utilization             0.0                       # Layer utilization (%)
system.tol2bus.respLayer1.occupancy       29983434470                       # Layer occupancy (ticks)
system.tol2bus.respLayer1.utilization             4.7                       # Layer utilization (%)
system.tol2bus.respLayer0.occupancy          27721830                       # Layer occupancy (ticks)
system.tol2bus.respLayer0.utilization             0.0                       # Layer utilization (%)
system.tol2bus.respLayer3.occupancy       21659672081                       # Layer occupancy (ticks)
system.tol2bus.respLayer3.utilization             3.4                       # Layer utilization (%)
system.tol2bus.respLayer2.occupancy           7022230                       # Layer occupancy (ticks)
system.tol2bus.respLayer2.utilization             0.0                       # Layer utilization (%)
system.tol2bus.snoopLayer0.occupancy            31520                       # Layer occupancy (ticks)
system.tol2bus.snoopLayer0.utilization            0.0                       # Layer utilization (%)

---------- End Simulation Statistics   ----------
