
---------- Begin Simulation Statistics ----------
final_tick                               586552118000                       # Number of ticks from beginning of simulation (restored from checkpoints and never reset)
host_inst_rate                                  59528                       # Simulator instruction rate (inst/s)
host_mem_usage                                 701140                       # Number of bytes of host memory used
host_op_rate                                    59726                       # Simulator op (including micro ops) rate (op/s)
host_seconds                                 10290.56                       # Real time elapsed on the host
host_tick_rate                               56999039                       # Simulator tick rate (ticks/s)
sim_freq                                 1000000000000                       # Frequency of simulated ticks
sim_insts                                   612574201                       # Number of instructions simulated
sim_ops                                     614611778                       # Number of ops (including micro ops) simulated
sim_seconds                                  0.586552                       # Number of seconds simulated
sim_ticks                                586552118000                       # Number of ticks simulated
system.cpu0.branchPred.BTBCorrect                   0                       # Number of correct BTB predictions (this stat may not work properly.
system.cpu0.branchPred.BTBHitPct            87.255389                       # BTB Hit Percentage
system.cpu0.branchPred.BTBHits               80216667                       # Number of BTB hits
system.cpu0.branchPred.BTBLookups            91933195                       # Number of BTB lookups
system.cpu0.branchPred.RASInCorrect                 0                       # Number of incorrect RAS predictions.
system.cpu0.branchPred.condIncorrect          8757034                       # Number of conditional branches incorrect
system.cpu0.branchPred.condPredicted        126149696                       # Number of conditional branches predicted
system.cpu0.branchPred.indirectHits          10394864                       # Number of indirect target hits.
system.cpu0.branchPred.indirectLookups       10721299                       # Number of indirect predictor lookups.
system.cpu0.branchPred.indirectMisses          326435                       # Number of indirect misses.
system.cpu0.branchPred.lookups              160549415                       # Number of BP lookups
system.cpu0.branchPred.usedRAS                      0                       # Number of times the RAS was used to get a target.
system.cpu0.branchPredindirectMispredicted      1064173                       # Number of mispredicted indirect branches.
system.cpu0.commit.amos                       1018201                       # Number of atomic instructions committed
system.cpu0.commit.branchMispredicts          5802270                       # The number of times a branch was mispredicted
system.cpu0.commit.branches                 143209214                       # Number of branches committed
system.cpu0.commit.bw_lim_events             14842891                       # number cycles where commit BW limit reached
system.cpu0.commit.commitNonSpecStalls        3058453                       # The number of times commit has been forced to stall to communicate backwards
system.cpu0.commit.commitSquashedInsts       51959471                       # The number of squashed insts skipped by commit
system.cpu0.commit.committedInsts           580309711                       # Number of instructions committed
system.cpu0.commit.committedOps             581329187                       # Number of ops (including micro ops) committed
system.cpu0.commit.committed_per_cycle::samples   1083235148                       # Number of insts commited each cycle
system.cpu0.commit.committed_per_cycle::mean     0.536660                       # Number of insts commited each cycle
system.cpu0.commit.committed_per_cycle::stdev     1.276644                       # Number of insts commited each cycle
system.cpu0.commit.committed_per_cycle::underflows            0      0.00%      0.00% # Number of insts commited each cycle
system.cpu0.commit.committed_per_cycle::0    796715900     73.55%     73.55% # Number of insts commited each cycle
system.cpu0.commit.committed_per_cycle::1    168866058     15.59%     89.14% # Number of insts commited each cycle
system.cpu0.commit.committed_per_cycle::2     45304073      4.18%     93.32% # Number of insts commited each cycle
system.cpu0.commit.committed_per_cycle::3     40754615      3.76%     97.08% # Number of insts commited each cycle
system.cpu0.commit.committed_per_cycle::4      9579945      0.88%     97.97% # Number of insts commited each cycle
system.cpu0.commit.committed_per_cycle::5      2850180      0.26%     98.23% # Number of insts commited each cycle
system.cpu0.commit.committed_per_cycle::6      1973072      0.18%     98.41% # Number of insts commited each cycle
system.cpu0.commit.committed_per_cycle::7      2348414      0.22%     98.63% # Number of insts commited each cycle
system.cpu0.commit.committed_per_cycle::8     14842891      1.37%    100.00% # Number of insts commited each cycle
system.cpu0.commit.committed_per_cycle::overflows            0      0.00%    100.00% # Number of insts commited each cycle
system.cpu0.commit.committed_per_cycle::min_value            0                       # Number of insts commited each cycle
system.cpu0.commit.committed_per_cycle::max_value            8                       # Number of insts commited each cycle
system.cpu0.commit.committed_per_cycle::total   1083235148                       # Number of insts commited each cycle
system.cpu0.commit.fp_insts                        50                       # Number of committed floating point instructions.
system.cpu0.commit.function_calls            11887550                       # Number of function calls committed.
system.cpu0.commit.int_insts                561308727                       # Number of committed integer instructions.
system.cpu0.commit.loads                    179956467                       # Number of loads committed
system.cpu0.commit.membars                    2037567                       # Number of memory barriers committed
system.cpu0.commit.op_class_0::No_OpClass      2037573      0.35%      0.35% # Class of committed instruction
system.cpu0.commit.op_class_0::IntAlu       322239389     55.43%     55.78% # Class of committed instruction
system.cpu0.commit.op_class_0::IntMult        4135822      0.71%     56.49% # Class of committed instruction
system.cpu0.commit.op_class_0::IntDiv         1017773      0.18%     56.67% # Class of committed instruction
system.cpu0.commit.op_class_0::FloatAdd             0      0.00%     56.67% # Class of committed instruction
system.cpu0.commit.op_class_0::FloatCmp             4      0.00%     56.67% # Class of committed instruction
system.cpu0.commit.op_class_0::FloatCvt            12      0.00%     56.67% # Class of committed instruction
system.cpu0.commit.op_class_0::FloatMult            0      0.00%     56.67% # Class of committed instruction
system.cpu0.commit.op_class_0::FloatMultAcc            0      0.00%     56.67% # Class of committed instruction
system.cpu0.commit.op_class_0::FloatDiv             2      0.00%     56.67% # Class of committed instruction
system.cpu0.commit.op_class_0::FloatMisc            4      0.00%     56.67% # Class of committed instruction
system.cpu0.commit.op_class_0::FloatSqrt            0      0.00%     56.67% # Class of committed instruction
system.cpu0.commit.op_class_0::SimdAdd              0      0.00%     56.67% # Class of committed instruction
system.cpu0.commit.op_class_0::SimdAddAcc            0      0.00%     56.67% # Class of committed instruction
system.cpu0.commit.op_class_0::SimdAlu              0      0.00%     56.67% # Class of committed instruction
system.cpu0.commit.op_class_0::SimdCmp              0      0.00%     56.67% # Class of committed instruction
system.cpu0.commit.op_class_0::SimdCvt              0      0.00%     56.67% # Class of committed instruction
system.cpu0.commit.op_class_0::SimdMisc             0      0.00%     56.67% # Class of committed instruction
system.cpu0.commit.op_class_0::SimdMult             0      0.00%     56.67% # Class of committed instruction
system.cpu0.commit.op_class_0::SimdMultAcc            0      0.00%     56.67% # Class of committed instruction
system.cpu0.commit.op_class_0::SimdShift            0      0.00%     56.67% # Class of committed instruction
system.cpu0.commit.op_class_0::SimdShiftAcc            0      0.00%     56.67% # Class of committed instruction
system.cpu0.commit.op_class_0::SimdDiv              0      0.00%     56.67% # Class of committed instruction
system.cpu0.commit.op_class_0::SimdSqrt             0      0.00%     56.67% # Class of committed instruction
system.cpu0.commit.op_class_0::SimdFloatAdd            0      0.00%     56.67% # Class of committed instruction
system.cpu0.commit.op_class_0::SimdFloatAlu            0      0.00%     56.67% # Class of committed instruction
system.cpu0.commit.op_class_0::SimdFloatCmp            0      0.00%     56.67% # Class of committed instruction
system.cpu0.commit.op_class_0::SimdFloatCvt            0      0.00%     56.67% # Class of committed instruction
system.cpu0.commit.op_class_0::SimdFloatDiv            0      0.00%     56.67% # Class of committed instruction
system.cpu0.commit.op_class_0::SimdFloatMisc            0      0.00%     56.67% # Class of committed instruction
system.cpu0.commit.op_class_0::SimdFloatMult            0      0.00%     56.67% # Class of committed instruction
system.cpu0.commit.op_class_0::SimdFloatMultAcc            0      0.00%     56.67% # Class of committed instruction
system.cpu0.commit.op_class_0::SimdFloatSqrt            0      0.00%     56.67% # Class of committed instruction
system.cpu0.commit.op_class_0::SimdReduceAdd            0      0.00%     56.67% # Class of committed instruction
system.cpu0.commit.op_class_0::SimdReduceAlu            0      0.00%     56.67% # Class of committed instruction
system.cpu0.commit.op_class_0::SimdReduceCmp            0      0.00%     56.67% # Class of committed instruction
system.cpu0.commit.op_class_0::SimdFloatReduceAdd            0      0.00%     56.67% # Class of committed instruction
system.cpu0.commit.op_class_0::SimdFloatReduceCmp            0      0.00%     56.67% # Class of committed instruction
system.cpu0.commit.op_class_0::SimdAes              0      0.00%     56.67% # Class of committed instruction
system.cpu0.commit.op_class_0::SimdAesMix            0      0.00%     56.67% # Class of committed instruction
system.cpu0.commit.op_class_0::SimdSha1Hash            0      0.00%     56.67% # Class of committed instruction
system.cpu0.commit.op_class_0::SimdSha1Hash2            0      0.00%     56.67% # Class of committed instruction
system.cpu0.commit.op_class_0::SimdSha256Hash            0      0.00%     56.67% # Class of committed instruction
system.cpu0.commit.op_class_0::SimdSha256Hash2            0      0.00%     56.67% # Class of committed instruction
system.cpu0.commit.op_class_0::SimdShaSigma2            0      0.00%     56.67% # Class of committed instruction
system.cpu0.commit.op_class_0::SimdShaSigma3            0      0.00%     56.67% # Class of committed instruction
system.cpu0.commit.op_class_0::SimdPredAlu            0      0.00%     56.67% # Class of committed instruction
system.cpu0.commit.op_class_0::MemRead      180974660     31.13%     87.80% # Class of committed instruction
system.cpu0.commit.op_class_0::MemWrite      70923920     12.20%    100.00% # Class of committed instruction
system.cpu0.commit.op_class_0::FloatMemRead            8      0.00%    100.00% # Class of committed instruction
system.cpu0.commit.op_class_0::FloatMemWrite           20      0.00%    100.00% # Class of committed instruction
system.cpu0.commit.op_class_0::IprAccess            0      0.00%    100.00% # Class of committed instruction
system.cpu0.commit.op_class_0::InstPrefetch            0      0.00%    100.00% # Class of committed instruction
system.cpu0.commit.op_class_0::total        581329187                       # Class of committed instruction
system.cpu0.commit.refs                     251898608                       # Number of memory references committed
system.cpu0.commit.swp_count                        0                       # Number of s/w prefetches committed
system.cpu0.commit.vec_insts                        0                       # Number of committed Vector instructions.
system.cpu0.committedInsts                  580309711                       # Number of Instructions Simulated
system.cpu0.committedOps                    581329187                       # Number of Ops (including micro ops) Simulated
system.cpu0.cpi                              2.004916                       # CPI: Cycles Per Instruction
system.cpu0.cpi_total                        2.004916                       # CPI: Total CPI of All Threads
system.cpu0.decode.BlockedCycles            174047741                       # Number of cycles decode is blocked
system.cpu0.decode.BranchMispred              2967848                       # Number of times decode detected a branch misprediction
system.cpu0.decode.BranchResolved            79221515                       # Number of times decode resolved a branch
system.cpu0.decode.DecodedInsts             649793055                       # Number of instructions handled by decode
system.cpu0.decode.IdleCycles               471646846                       # Number of cycles decode is idle
system.cpu0.decode.RunCycles                438127213                       # Number of cycles decode is running
system.cpu0.decode.SquashCycles               5809173                       # Number of cycles decode is squashing
system.cpu0.decode.SquashedInsts              8435977                       # Number of squashed instructions handled by decode
system.cpu0.decode.UnblockCycles              3487018                       # Number of cycles decode is unblocking
system.cpu0.dtb.accesses                            0                       # DTB accesses
system.cpu0.dtb.hits                                0                       # DTB hits
system.cpu0.dtb.misses                              0                       # DTB misses
system.cpu0.dtb.read_accesses                       0                       # DTB read accesses
system.cpu0.dtb.read_hits                           0                       # DTB read hits
system.cpu0.dtb.read_misses                         0                       # DTB read misses
system.cpu0.dtb.write_accesses                      0                       # DTB write accesses
system.cpu0.dtb.write_hits                          0                       # DTB write hits
system.cpu0.dtb.write_misses                        0                       # DTB write misses
system.cpu0.fetch.Branches                  160549415                       # Number of branches that fetch encountered
system.cpu0.fetch.CacheLines                116899260                       # Number of cache lines fetched
system.cpu0.fetch.Cycles                    625351926                       # Number of cycles fetch has run and was not squashing or blocked
system.cpu0.fetch.IcacheSquashes              2342016                       # Number of outstanding Icache misses that were squashed
system.cpu0.fetch.IcacheWaitRetryStallCycles           63                       # Number of stall cycles due to full MSHR
system.cpu0.fetch.Insts                     670275196                       # Number of instructions fetch has processed
system.cpu0.fetch.MiscStallCycles                  30                       # Number of cycles fetch has spent waiting on interrupts, or bad addresses, or out of MSHRs
system.cpu0.fetch.PendingTrapStallCycles          107                       # Number of stall cycles due to pending traps
system.cpu0.fetch.SquashCycles               17527908                       # Number of cycles fetch has spent squashing
system.cpu0.fetch.branchRate                 0.137992                       # Number of branch fetches per cycle
system.cpu0.fetch.icacheStallCycles         459001911                       # Number of cycles fetch is stalled on an Icache miss
system.cpu0.fetch.predictedBranches          90611531                       # Number of branches that fetch has predicted taken
system.cpu0.fetch.rate                       0.576099                       # Number of inst fetches per cycle
system.cpu0.fetch.rateDist::samples        1093117991                       # Number of instructions fetched each cycle (Total)
system.cpu0.fetch.rateDist::mean             0.615711                       # Number of instructions fetched each cycle (Total)
system.cpu0.fetch.rateDist::stdev            0.920023                       # Number of instructions fetched each cycle (Total)
system.cpu0.fetch.rateDist::underflows              0      0.00%      0.00% # Number of instructions fetched each cycle (Total)
system.cpu0.fetch.rateDist::0               627988385     57.45%     57.45% # Number of instructions fetched each cycle (Total)
system.cpu0.fetch.rateDist::1               340983490     31.19%     88.64% # Number of instructions fetched each cycle (Total)
system.cpu0.fetch.rateDist::2                65043096      5.95%     94.59% # Number of instructions fetched each cycle (Total)
system.cpu0.fetch.rateDist::3                44938745      4.11%     98.70% # Number of instructions fetched each cycle (Total)
system.cpu0.fetch.rateDist::4                 8065763      0.74%     99.44% # Number of instructions fetched each cycle (Total)
system.cpu0.fetch.rateDist::5                 3743000      0.34%     99.78% # Number of instructions fetched each cycle (Total)
system.cpu0.fetch.rateDist::6                  310878      0.03%     99.81% # Number of instructions fetched each cycle (Total)
system.cpu0.fetch.rateDist::7                 2041080      0.19%    100.00% # Number of instructions fetched each cycle (Total)
system.cpu0.fetch.rateDist::8                    3554      0.00%    100.00% # Number of instructions fetched each cycle (Total)
system.cpu0.fetch.rateDist::overflows               0      0.00%    100.00% # Number of instructions fetched each cycle (Total)
system.cpu0.fetch.rateDist::min_value               0                       # Number of instructions fetched each cycle (Total)
system.cpu0.fetch.rateDist::max_value               8                       # Number of instructions fetched each cycle (Total)
system.cpu0.fetch.rateDist::total          1093117991                       # Number of instructions fetched each cycle (Total)
system.cpu0.fp_regfile_reads                       44                       # number of floating regfile reads
system.cpu0.fp_regfile_writes                      22                       # number of floating regfile writes
system.cpu0.idleCycles                       70354206                       # Total number of cycles that the CPU has spent unscheduled due to idling
system.cpu0.iew.branchMispredicts             5877085                       # Number of branch mispredicts detected at execute
system.cpu0.iew.exec_branches               148862657                       # Number of branches executed
system.cpu0.iew.exec_nop                            0                       # number of nop insts executed
system.cpu0.iew.exec_rate                    0.523619                       # Inst execution rate
system.cpu0.iew.exec_refs                   265661334                       # number of memory reference insts executed
system.cpu0.iew.exec_stores                  74408780                       # Number of stores executed
system.cpu0.iew.exec_swp                            0                       # number of swp insts executed
system.cpu0.iew.iewBlockCycles              140346524                       # Number of cycles IEW is blocking
system.cpu0.iew.iewDispLoadInsts            198405049                       # Number of dispatched load instructions
system.cpu0.iew.iewDispNonSpecInsts           2028099                       # Number of dispatched non-speculative instructions
system.cpu0.iew.iewDispSquashedInsts          2875097                       # Number of squashed instructions skipped by dispatch
system.cpu0.iew.iewDispStoreInsts            77247298                       # Number of dispatched store instructions
system.cpu0.iew.iewDispatchedInsts          633268771                       # Number of instructions dispatched to IQ
system.cpu0.iew.iewExecLoadInsts            191252554                       # Number of load instructions executed
system.cpu0.iew.iewExecSquashedInsts          5066889                       # Number of squashed instructions skipped in execute
system.cpu0.iew.iewExecutedInsts            609216668                       # Number of executed instructions
system.cpu0.iew.iewIQFullEvents               1127883                       # Number of times the IQ has become full, causing a stall
system.cpu0.iew.iewIdleCycles                       0                       # Number of cycles IEW is idle
system.cpu0.iew.iewLSQFullEvents              4615627                       # Number of times the LSQ has become full, causing a stall
system.cpu0.iew.iewSquashCycles               5809173                       # Number of cycles IEW is squashing
system.cpu0.iew.iewUnblockCycles              6821163                       # Number of cycles IEW is unblocking
system.cpu0.iew.lsq.thread0.blockedLoads            0                       # Number of blocked loads due to partial load-store forwarding
system.cpu0.iew.lsq.thread0.cacheBlocked       157671                       # Number of times an access to memory failed due to the cache being blocked
system.cpu0.iew.lsq.thread0.forwLoads         8189036                       # Number of loads that had data forwarded from stores
system.cpu0.iew.lsq.thread0.ignoredResponses        29415                       # Number of memory responses ignored because the instruction is squashed
system.cpu0.iew.lsq.thread0.invAddrLoads            0                       # Number of loads ignored due to an invalid address
system.cpu0.iew.lsq.thread0.invAddrSwpfs            0                       # Number of software prefetches ignored due to an invalid address
system.cpu0.iew.lsq.thread0.memOrderViolation         7423                       # Number of memory ordering violations
system.cpu0.iew.lsq.thread0.rescheduledLoads      2379367                       # Number of loads that were rescheduled
system.cpu0.iew.lsq.thread0.squashedLoads     18448582                       # Number of loads squashed
system.cpu0.iew.lsq.thread0.squashedStores      5305157                       # Number of stores squashed
system.cpu0.iew.memOrderViolationEvents          7423                       # Number of memory order violations
system.cpu0.iew.predictedNotTakenIncorrect       868301                       # Number of branches that were predicted not taken incorrectly
system.cpu0.iew.predictedTakenIncorrect       5008784                       # Number of branches that were predicted taken incorrectly
system.cpu0.iew.wb_consumers                256694340                       # num instructions consuming a value
system.cpu0.iew.wb_count                    603528394                       # cumulative count of insts written-back
system.cpu0.iew.wb_fanout                    0.877324                       # average fanout of values written-back
system.cpu0.iew.wb_producers                225204015                       # num instructions producing a value
system.cpu0.iew.wb_rate                      0.518730                       # insts written-back per cycle
system.cpu0.iew.wb_sent                     603588782                       # cumulative count of insts sent to commit
system.cpu0.int_regfile_reads               744417435                       # number of integer regfile reads
system.cpu0.int_regfile_writes              384822824                       # number of integer regfile writes
system.cpu0.ipc                              0.498774                       # IPC: Instructions Per Cycle
system.cpu0.ipc_total                        0.498774                       # IPC: Total IPC of All Threads
system.cpu0.iq.FU_type_0::No_OpClass          2038437      0.33%      0.33% # Type of FU issued
system.cpu0.iq.FU_type_0::IntAlu            339120252     55.21%     55.54% # Type of FU issued
system.cpu0.iq.FU_type_0::IntMult             4140748      0.67%     56.21% # Type of FU issued
system.cpu0.iq.FU_type_0::IntDiv              1018045      0.17%     56.38% # Type of FU issued
system.cpu0.iq.FU_type_0::FloatAdd                  0      0.00%     56.38% # Type of FU issued
system.cpu0.iq.FU_type_0::FloatCmp                  4      0.00%     56.38% # Type of FU issued
system.cpu0.iq.FU_type_0::FloatCvt                 12      0.00%     56.38% # Type of FU issued
system.cpu0.iq.FU_type_0::FloatMult                 0      0.00%     56.38% # Type of FU issued
system.cpu0.iq.FU_type_0::FloatMultAcc              0      0.00%     56.38% # Type of FU issued
system.cpu0.iq.FU_type_0::FloatDiv                  2      0.00%     56.38% # Type of FU issued
system.cpu0.iq.FU_type_0::FloatMisc                 4      0.00%     56.38% # Type of FU issued
system.cpu0.iq.FU_type_0::FloatSqrt                 0      0.00%     56.38% # Type of FU issued
system.cpu0.iq.FU_type_0::SimdAdd                   0      0.00%     56.38% # Type of FU issued
system.cpu0.iq.FU_type_0::SimdAddAcc                0      0.00%     56.38% # Type of FU issued
system.cpu0.iq.FU_type_0::SimdAlu                   0      0.00%     56.38% # Type of FU issued
system.cpu0.iq.FU_type_0::SimdCmp                   0      0.00%     56.38% # Type of FU issued
system.cpu0.iq.FU_type_0::SimdCvt                   0      0.00%     56.38% # Type of FU issued
system.cpu0.iq.FU_type_0::SimdMisc                  0      0.00%     56.38% # Type of FU issued
system.cpu0.iq.FU_type_0::SimdMult                  0      0.00%     56.38% # Type of FU issued
system.cpu0.iq.FU_type_0::SimdMultAcc               0      0.00%     56.38% # Type of FU issued
system.cpu0.iq.FU_type_0::SimdShift                 0      0.00%     56.38% # Type of FU issued
system.cpu0.iq.FU_type_0::SimdShiftAcc              0      0.00%     56.38% # Type of FU issued
system.cpu0.iq.FU_type_0::SimdDiv                   0      0.00%     56.38% # Type of FU issued
system.cpu0.iq.FU_type_0::SimdSqrt                  0      0.00%     56.38% # Type of FU issued
system.cpu0.iq.FU_type_0::SimdFloatAdd              0      0.00%     56.38% # Type of FU issued
system.cpu0.iq.FU_type_0::SimdFloatAlu              0      0.00%     56.38% # Type of FU issued
system.cpu0.iq.FU_type_0::SimdFloatCmp              0      0.00%     56.38% # Type of FU issued
system.cpu0.iq.FU_type_0::SimdFloatCvt              0      0.00%     56.38% # Type of FU issued
system.cpu0.iq.FU_type_0::SimdFloatDiv              0      0.00%     56.38% # Type of FU issued
system.cpu0.iq.FU_type_0::SimdFloatMisc             0      0.00%     56.38% # Type of FU issued
system.cpu0.iq.FU_type_0::SimdFloatMult             0      0.00%     56.38% # Type of FU issued
system.cpu0.iq.FU_type_0::SimdFloatMultAcc            0      0.00%     56.38% # Type of FU issued
system.cpu0.iq.FU_type_0::SimdFloatSqrt             0      0.00%     56.38% # Type of FU issued
system.cpu0.iq.FU_type_0::SimdReduceAdd             0      0.00%     56.38% # Type of FU issued
system.cpu0.iq.FU_type_0::SimdReduceAlu             0      0.00%     56.38% # Type of FU issued
system.cpu0.iq.FU_type_0::SimdReduceCmp             0      0.00%     56.38% # Type of FU issued
system.cpu0.iq.FU_type_0::SimdFloatReduceAdd            0      0.00%     56.38% # Type of FU issued
system.cpu0.iq.FU_type_0::SimdFloatReduceCmp            0      0.00%     56.38% # Type of FU issued
system.cpu0.iq.FU_type_0::SimdAes                   0      0.00%     56.38% # Type of FU issued
system.cpu0.iq.FU_type_0::SimdAesMix                0      0.00%     56.38% # Type of FU issued
system.cpu0.iq.FU_type_0::SimdSha1Hash              0      0.00%     56.38% # Type of FU issued
system.cpu0.iq.FU_type_0::SimdSha1Hash2             0      0.00%     56.38% # Type of FU issued
system.cpu0.iq.FU_type_0::SimdSha256Hash            0      0.00%     56.38% # Type of FU issued
system.cpu0.iq.FU_type_0::SimdSha256Hash2            0      0.00%     56.38% # Type of FU issued
system.cpu0.iq.FU_type_0::SimdShaSigma2             0      0.00%     56.38% # Type of FU issued
system.cpu0.iq.FU_type_0::SimdShaSigma3             0      0.00%     56.38% # Type of FU issued
system.cpu0.iq.FU_type_0::SimdPredAlu               0      0.00%     56.38% # Type of FU issued
system.cpu0.iq.FU_type_0::MemRead           194376670     31.64%     88.02% # Type of FU issued
system.cpu0.iq.FU_type_0::MemWrite           73589356     11.98%    100.00% # Type of FU issued
system.cpu0.iq.FU_type_0::FloatMemRead              8      0.00%    100.00% # Type of FU issued
system.cpu0.iq.FU_type_0::FloatMemWrite            20      0.00%    100.00% # Type of FU issued
system.cpu0.iq.FU_type_0::IprAccess                 0      0.00%    100.00% # Type of FU issued
system.cpu0.iq.FU_type_0::InstPrefetch              0      0.00%    100.00% # Type of FU issued
system.cpu0.iq.FU_type_0::total             614283558                       # Type of FU issued
system.cpu0.iq.fp_alu_accesses                     52                       # Number of floating point alu accesses
system.cpu0.iq.fp_inst_queue_reads                102                       # Number of floating instruction queue reads
system.cpu0.iq.fp_inst_queue_wakeup_accesses           50                       # Number of floating instruction queue wakeup accesses
system.cpu0.iq.fp_inst_queue_writes                50                       # Number of floating instruction queue writes
system.cpu0.iq.fu_busy_cnt                    1569065                       # FU busy when requested
system.cpu0.iq.fu_busy_rate                  0.002554                       # FU busy rate (busy events/executed inst)
system.cpu0.iq.fu_full::No_OpClass                  0      0.00%      0.00% # attempts to use FU when none available
system.cpu0.iq.fu_full::IntAlu                 294772     18.79%     18.79% # attempts to use FU when none available
system.cpu0.iq.fu_full::IntMult                     0      0.00%     18.79% # attempts to use FU when none available
system.cpu0.iq.fu_full::IntDiv                      0      0.00%     18.79% # attempts to use FU when none available
system.cpu0.iq.fu_full::FloatAdd                    0      0.00%     18.79% # attempts to use FU when none available
system.cpu0.iq.fu_full::FloatCmp                    0      0.00%     18.79% # attempts to use FU when none available
system.cpu0.iq.fu_full::FloatCvt                    0      0.00%     18.79% # attempts to use FU when none available
system.cpu0.iq.fu_full::FloatMult                   0      0.00%     18.79% # attempts to use FU when none available
system.cpu0.iq.fu_full::FloatMultAcc                0      0.00%     18.79% # attempts to use FU when none available
system.cpu0.iq.fu_full::FloatDiv                    0      0.00%     18.79% # attempts to use FU when none available
system.cpu0.iq.fu_full::FloatMisc                   0      0.00%     18.79% # attempts to use FU when none available
system.cpu0.iq.fu_full::FloatSqrt                   0      0.00%     18.79% # attempts to use FU when none available
system.cpu0.iq.fu_full::SimdAdd                     0      0.00%     18.79% # attempts to use FU when none available
system.cpu0.iq.fu_full::SimdAddAcc                  0      0.00%     18.79% # attempts to use FU when none available
system.cpu0.iq.fu_full::SimdAlu                     0      0.00%     18.79% # attempts to use FU when none available
system.cpu0.iq.fu_full::SimdCmp                     0      0.00%     18.79% # attempts to use FU when none available
system.cpu0.iq.fu_full::SimdCvt                     0      0.00%     18.79% # attempts to use FU when none available
system.cpu0.iq.fu_full::SimdMisc                    0      0.00%     18.79% # attempts to use FU when none available
system.cpu0.iq.fu_full::SimdMult                    0      0.00%     18.79% # attempts to use FU when none available
system.cpu0.iq.fu_full::SimdMultAcc                 0      0.00%     18.79% # attempts to use FU when none available
system.cpu0.iq.fu_full::SimdShift                   0      0.00%     18.79% # attempts to use FU when none available
system.cpu0.iq.fu_full::SimdShiftAcc                0      0.00%     18.79% # attempts to use FU when none available
system.cpu0.iq.fu_full::SimdDiv                     0      0.00%     18.79% # attempts to use FU when none available
system.cpu0.iq.fu_full::SimdSqrt                    0      0.00%     18.79% # attempts to use FU when none available
system.cpu0.iq.fu_full::SimdFloatAdd                0      0.00%     18.79% # attempts to use FU when none available
system.cpu0.iq.fu_full::SimdFloatAlu                0      0.00%     18.79% # attempts to use FU when none available
system.cpu0.iq.fu_full::SimdFloatCmp                0      0.00%     18.79% # attempts to use FU when none available
system.cpu0.iq.fu_full::SimdFloatCvt                0      0.00%     18.79% # attempts to use FU when none available
system.cpu0.iq.fu_full::SimdFloatDiv                0      0.00%     18.79% # attempts to use FU when none available
system.cpu0.iq.fu_full::SimdFloatMisc               0      0.00%     18.79% # attempts to use FU when none available
system.cpu0.iq.fu_full::SimdFloatMult               0      0.00%     18.79% # attempts to use FU when none available
system.cpu0.iq.fu_full::SimdFloatMultAcc            0      0.00%     18.79% # attempts to use FU when none available
system.cpu0.iq.fu_full::SimdFloatSqrt               0      0.00%     18.79% # attempts to use FU when none available
system.cpu0.iq.fu_full::SimdReduceAdd               0      0.00%     18.79% # attempts to use FU when none available
system.cpu0.iq.fu_full::SimdReduceAlu               0      0.00%     18.79% # attempts to use FU when none available
system.cpu0.iq.fu_full::SimdReduceCmp               0      0.00%     18.79% # attempts to use FU when none available
system.cpu0.iq.fu_full::SimdFloatReduceAdd            0      0.00%     18.79% # attempts to use FU when none available
system.cpu0.iq.fu_full::SimdFloatReduceCmp            0      0.00%     18.79% # attempts to use FU when none available
system.cpu0.iq.fu_full::SimdAes                     0      0.00%     18.79% # attempts to use FU when none available
system.cpu0.iq.fu_full::SimdAesMix                  0      0.00%     18.79% # attempts to use FU when none available
system.cpu0.iq.fu_full::SimdSha1Hash                0      0.00%     18.79% # attempts to use FU when none available
system.cpu0.iq.fu_full::SimdSha1Hash2               0      0.00%     18.79% # attempts to use FU when none available
system.cpu0.iq.fu_full::SimdSha256Hash              0      0.00%     18.79% # attempts to use FU when none available
system.cpu0.iq.fu_full::SimdSha256Hash2             0      0.00%     18.79% # attempts to use FU when none available
system.cpu0.iq.fu_full::SimdShaSigma2               0      0.00%     18.79% # attempts to use FU when none available
system.cpu0.iq.fu_full::SimdShaSigma3               0      0.00%     18.79% # attempts to use FU when none available
system.cpu0.iq.fu_full::SimdPredAlu                 0      0.00%     18.79% # attempts to use FU when none available
system.cpu0.iq.fu_full::MemRead               1109057     70.68%     89.47% # attempts to use FU when none available
system.cpu0.iq.fu_full::MemWrite               165234     10.53%    100.00% # attempts to use FU when none available
system.cpu0.iq.fu_full::FloatMemRead                0      0.00%    100.00% # attempts to use FU when none available
system.cpu0.iq.fu_full::FloatMemWrite               2      0.00%    100.00% # attempts to use FU when none available
system.cpu0.iq.fu_full::IprAccess                   0      0.00%    100.00% # attempts to use FU when none available
system.cpu0.iq.fu_full::InstPrefetch                0      0.00%    100.00% # attempts to use FU when none available
system.cpu0.iq.int_alu_accesses             613814134                       # Number of integer alu accesses
system.cpu0.iq.int_inst_queue_reads        2323370763                       # Number of integer instruction queue reads
system.cpu0.iq.int_inst_queue_wakeup_accesses    603528344                       # Number of integer instruction queue wakeup accesses
system.cpu0.iq.int_inst_queue_writes        685214910                       # Number of integer instruction queue writes
system.cpu0.iq.iqInstsAdded                 627188782                       # Number of instructions added to the IQ (excludes non-spec)
system.cpu0.iq.iqInstsIssued                614283558                       # Number of instructions issued
system.cpu0.iq.iqNonSpecInstsAdded            6079989                       # Number of non-speculative instructions added to the IQ
system.cpu0.iq.iqSquashedInstsExamined       51939580                       # Number of squashed instructions iterated over during squash; mainly for profiling
system.cpu0.iq.iqSquashedInstsIssued           116694                       # Number of squashed instructions issued
system.cpu0.iq.iqSquashedNonSpecRemoved       3021536                       # Number of squashed non-spec instructions that were removed
system.cpu0.iq.iqSquashedOperandsExamined     30572963                       # Number of squashed operands that are examined and possibly removed from graph
system.cpu0.iq.issued_per_cycle::samples   1093117991                       # Number of insts issued each cycle
system.cpu0.iq.issued_per_cycle::mean        0.561955                       # Number of insts issued each cycle
system.cpu0.iq.issued_per_cycle::stdev       0.800491                       # Number of insts issued each cycle
system.cpu0.iq.issued_per_cycle::underflows            0      0.00%      0.00% # Number of insts issued each cycle
system.cpu0.iq.issued_per_cycle::0          644323322     58.94%     58.94% # Number of insts issued each cycle
system.cpu0.iq.issued_per_cycle::1          320025600     29.28%     88.22% # Number of insts issued each cycle
system.cpu0.iq.issued_per_cycle::2          101328370      9.27%     97.49% # Number of insts issued each cycle
system.cpu0.iq.issued_per_cycle::3           20733388      1.90%     99.39% # Number of insts issued each cycle
system.cpu0.iq.issued_per_cycle::4            5282107      0.48%     99.87% # Number of insts issued each cycle
system.cpu0.iq.issued_per_cycle::5             663961      0.06%     99.93% # Number of insts issued each cycle
system.cpu0.iq.issued_per_cycle::6             469668      0.04%     99.97% # Number of insts issued each cycle
system.cpu0.iq.issued_per_cycle::7             197787      0.02%     99.99% # Number of insts issued each cycle
system.cpu0.iq.issued_per_cycle::8              93788      0.01%    100.00% # Number of insts issued each cycle
system.cpu0.iq.issued_per_cycle::overflows            0      0.00%    100.00% # Number of insts issued each cycle
system.cpu0.iq.issued_per_cycle::min_value            0                       # Number of insts issued each cycle
system.cpu0.iq.issued_per_cycle::max_value            8                       # Number of insts issued each cycle
system.cpu0.iq.issued_per_cycle::total     1093117991                       # Number of insts issued each cycle
system.cpu0.iq.rate                          0.527974                       # Inst issue rate
system.cpu0.iq.vec_alu_accesses                     0                       # Number of vector alu accesses
system.cpu0.iq.vec_inst_queue_reads                 0                       # Number of vector instruction queue reads
system.cpu0.iq.vec_inst_queue_wakeup_accesses            0                       # Number of vector instruction queue wakeup accesses
system.cpu0.iq.vec_inst_queue_writes                0                       # Number of vector instruction queue writes
system.cpu0.itb.accesses                            0                       # DTB accesses
system.cpu0.itb.hits                                0                       # DTB hits
system.cpu0.itb.misses                              0                       # DTB misses
system.cpu0.itb.read_accesses                       0                       # DTB read accesses
system.cpu0.itb.read_hits                           0                       # DTB read hits
system.cpu0.itb.read_misses                         0                       # DTB read misses
system.cpu0.itb.write_accesses                      0                       # DTB write accesses
system.cpu0.itb.write_hits                          0                       # DTB write hits
system.cpu0.itb.write_misses                        0                       # DTB write misses
system.cpu0.memDep0.conflictingLoads         16884185                       # Number of conflicting loads.
system.cpu0.memDep0.conflictingStores         2916093                       # Number of conflicting stores.
system.cpu0.memDep0.insertedLoads           198405049                       # Number of loads inserted to the mem dependence unit.
system.cpu0.memDep0.insertedStores           77247298                       # Number of stores inserted to the mem dependence unit.
system.cpu0.misc_regfile_reads                    879                       # number of misc regfile reads
system.cpu0.misc_regfile_writes                    22                       # number of misc regfile writes
system.cpu0.numCycles                      1163472197                       # number of cpu cycles simulated
system.cpu0.numWorkItemsCompleted                   0                       # number of work items this cpu completed
system.cpu0.numWorkItemsStarted                     0                       # number of work items this cpu started
system.cpu0.quiesceCycles                     9632765                       # Total number of cycles that CPU has spent quiesced or waiting for an interrupt
system.cpu0.rename.BlockCycles              153845631                       # Number of cycles rename is blocking
system.cpu0.rename.CommittedMaps            370580693                       # Number of HB maps that are committed
system.cpu0.rename.IQFullEvents               7035613                       # Number of times rename has blocked due to IQ full
system.cpu0.rename.IdleCycles               478929284                       # Number of cycles rename is idle
system.cpu0.rename.LQFullEvents               5702765                       # Number of times rename has blocked due to LQ full
system.cpu0.rename.ROBFullEvents                 6003                       # Number of times rename has blocked due to ROB full
system.cpu0.rename.RenameLookups            783394602                       # Number of register rename lookups that rename has made
system.cpu0.rename.RenamedInsts             641984011                       # Number of instructions processed by rename
system.cpu0.rename.RenamedOperands          412169926                       # Number of destination operands rename has renamed
system.cpu0.rename.RunCycles                433124351                       # Number of cycles rename is running
system.cpu0.rename.SQFullEvents               8539189                       # Number of times rename has blocked due to SQ full
system.cpu0.rename.SquashCycles               5809173                       # Number of cycles rename is squashing
system.cpu0.rename.UnblockCycles             21326491                       # Number of cycles rename is unblocking
system.cpu0.rename.UndoneMaps                41589228                       # Number of HB maps that are undone due to squashing
system.cpu0.rename.fp_rename_lookups               44                       # Number of floating rename lookups
system.cpu0.rename.int_rename_lookups       783394558                       # Number of integer rename lookups
system.cpu0.rename.serializeStallCycles         83061                       # count of cycles rename stalled for serializing inst
system.cpu0.rename.serializingInsts              2831                       # count of serializing insts renamed
system.cpu0.rename.skidInsts                 14546536                       # count of insts added to the skid buffer
system.cpu0.rename.tempSerializingInsts          2787                       # count of temporary serializing insts renamed
system.cpu0.rob.rob_reads                  1701670008                       # The number of ROB reads
system.cpu0.rob.rob_writes                 1276475811                       # The number of ROB writes
system.cpu0.timesIdled                       15075488                       # Number of times that the entire CPU went into an idle state and unscheduled itself
system.cpu0.workload.numSyscalls                  846                       # Number of system calls
system.cpu1.branchPred.BTBCorrect                   0                       # Number of correct BTB predictions (this stat may not work properly.
system.cpu1.branchPred.BTBHitPct            74.163453                       # BTB Hit Percentage
system.cpu1.branchPred.BTBHits                4635577                       # Number of BTB hits
system.cpu1.branchPred.BTBLookups             6250487                       # Number of BTB lookups
system.cpu1.branchPred.RASInCorrect                 0                       # Number of incorrect RAS predictions.
system.cpu1.branchPred.condIncorrect           823313                       # Number of conditional branches incorrect
system.cpu1.branchPred.condPredicted          7969986                       # Number of conditional branches predicted
system.cpu1.branchPred.indirectHits            278521                       # Number of indirect target hits.
system.cpu1.branchPred.indirectLookups         409968                       # Number of indirect predictor lookups.
system.cpu1.branchPred.indirectMisses          131447                       # Number of indirect misses.
system.cpu1.branchPred.lookups                8966347                       # Number of BP lookups
system.cpu1.branchPred.usedRAS                      0                       # Number of times the RAS was used to get a target.
system.cpu1.branchPredindirectMispredicted         3244                       # Number of mispredicted indirect branches.
system.cpu1.commit.amos                       1017929                       # Number of atomic instructions committed
system.cpu1.commit.branchMispredicts           487726                       # The number of times a branch was mispredicted
system.cpu1.commit.branches                   7095618                       # Number of branches committed
system.cpu1.commit.bw_lim_events               868497                       # number cycles where commit BW limit reached
system.cpu1.commit.commitNonSpecStalls        3054439                       # The number of times commit has been forced to stall to communicate backwards
system.cpu1.commit.commitSquashedInsts        5373584                       # The number of squashed insts skipped by commit
system.cpu1.commit.committedInsts            32264490                       # Number of instructions committed
system.cpu1.commit.committedOps              33282591                       # Number of ops (including micro ops) committed
system.cpu1.commit.committed_per_cycle::samples    198057729                       # Number of insts commited each cycle
system.cpu1.commit.committed_per_cycle::mean     0.168045                       # Number of insts commited each cycle
system.cpu1.commit.committed_per_cycle::stdev     0.820510                       # Number of insts commited each cycle
system.cpu1.commit.committed_per_cycle::underflows            0      0.00%      0.00% # Number of insts commited each cycle
system.cpu1.commit.committed_per_cycle::0    184387823     93.10%     93.10% # Number of insts commited each cycle
system.cpu1.commit.committed_per_cycle::1      6843489      3.46%     96.55% # Number of insts commited each cycle
system.cpu1.commit.committed_per_cycle::2      2329099      1.18%     97.73% # Number of insts commited each cycle
system.cpu1.commit.committed_per_cycle::3      1960466      0.99%     98.72% # Number of insts commited each cycle
system.cpu1.commit.committed_per_cycle::4       488505      0.25%     98.97% # Number of insts commited each cycle
system.cpu1.commit.committed_per_cycle::5       157429      0.08%     99.05% # Number of insts commited each cycle
system.cpu1.commit.committed_per_cycle::6       946582      0.48%     99.52% # Number of insts commited each cycle
system.cpu1.commit.committed_per_cycle::7        75839      0.04%     99.56% # Number of insts commited each cycle
system.cpu1.commit.committed_per_cycle::8       868497      0.44%    100.00% # Number of insts commited each cycle
system.cpu1.commit.committed_per_cycle::overflows            0      0.00%    100.00% # Number of insts commited each cycle
system.cpu1.commit.committed_per_cycle::min_value            0                       # Number of insts commited each cycle
system.cpu1.commit.committed_per_cycle::max_value            8                       # Number of insts commited each cycle
system.cpu1.commit.committed_per_cycle::total    198057729                       # Number of insts commited each cycle
system.cpu1.commit.fp_insts                        12                       # Number of committed floating point instructions.
system.cpu1.commit.function_calls              320864                       # Number of function calls committed.
system.cpu1.commit.int_insts                 31049350                       # Number of committed integer instructions.
system.cpu1.commit.loads                      9248735                       # Number of loads committed
system.cpu1.commit.membars                    2035981                       # Number of memory barriers committed
system.cpu1.commit.op_class_0::No_OpClass      2035981      6.12%      6.12% # Class of committed instruction
system.cpu1.commit.op_class_0::IntAlu        19083529     57.34%     63.46% # Class of committed instruction
system.cpu1.commit.op_class_0::IntMult             42      0.00%     63.46% # Class of committed instruction
system.cpu1.commit.op_class_0::IntDiv              84      0.00%     63.46% # Class of committed instruction
system.cpu1.commit.op_class_0::FloatAdd             0      0.00%     63.46% # Class of committed instruction
system.cpu1.commit.op_class_0::FloatCmp             0      0.00%     63.46% # Class of committed instruction
system.cpu1.commit.op_class_0::FloatCvt             0      0.00%     63.46% # Class of committed instruction
system.cpu1.commit.op_class_0::FloatMult            0      0.00%     63.46% # Class of committed instruction
system.cpu1.commit.op_class_0::FloatMultAcc            0      0.00%     63.46% # Class of committed instruction
system.cpu1.commit.op_class_0::FloatDiv             0      0.00%     63.46% # Class of committed instruction
system.cpu1.commit.op_class_0::FloatMisc            0      0.00%     63.46% # Class of committed instruction
system.cpu1.commit.op_class_0::FloatSqrt            0      0.00%     63.46% # Class of committed instruction
system.cpu1.commit.op_class_0::SimdAdd              0      0.00%     63.46% # Class of committed instruction
system.cpu1.commit.op_class_0::SimdAddAcc            0      0.00%     63.46% # Class of committed instruction
system.cpu1.commit.op_class_0::SimdAlu              0      0.00%     63.46% # Class of committed instruction
system.cpu1.commit.op_class_0::SimdCmp              0      0.00%     63.46% # Class of committed instruction
system.cpu1.commit.op_class_0::SimdCvt              0      0.00%     63.46% # Class of committed instruction
system.cpu1.commit.op_class_0::SimdMisc             0      0.00%     63.46% # Class of committed instruction
system.cpu1.commit.op_class_0::SimdMult             0      0.00%     63.46% # Class of committed instruction
system.cpu1.commit.op_class_0::SimdMultAcc            0      0.00%     63.46% # Class of committed instruction
system.cpu1.commit.op_class_0::SimdShift            0      0.00%     63.46% # Class of committed instruction
system.cpu1.commit.op_class_0::SimdShiftAcc            0      0.00%     63.46% # Class of committed instruction
system.cpu1.commit.op_class_0::SimdDiv              0      0.00%     63.46% # Class of committed instruction
system.cpu1.commit.op_class_0::SimdSqrt             0      0.00%     63.46% # Class of committed instruction
system.cpu1.commit.op_class_0::SimdFloatAdd            0      0.00%     63.46% # Class of committed instruction
system.cpu1.commit.op_class_0::SimdFloatAlu            0      0.00%     63.46% # Class of committed instruction
system.cpu1.commit.op_class_0::SimdFloatCmp            0      0.00%     63.46% # Class of committed instruction
system.cpu1.commit.op_class_0::SimdFloatCvt            0      0.00%     63.46% # Class of committed instruction
system.cpu1.commit.op_class_0::SimdFloatDiv            0      0.00%     63.46% # Class of committed instruction
system.cpu1.commit.op_class_0::SimdFloatMisc            0      0.00%     63.46% # Class of committed instruction
system.cpu1.commit.op_class_0::SimdFloatMult            0      0.00%     63.46% # Class of committed instruction
system.cpu1.commit.op_class_0::SimdFloatMultAcc            0      0.00%     63.46% # Class of committed instruction
system.cpu1.commit.op_class_0::SimdFloatSqrt            0      0.00%     63.46% # Class of committed instruction
system.cpu1.commit.op_class_0::SimdReduceAdd            0      0.00%     63.46% # Class of committed instruction
system.cpu1.commit.op_class_0::SimdReduceAlu            0      0.00%     63.46% # Class of committed instruction
system.cpu1.commit.op_class_0::SimdReduceCmp            0      0.00%     63.46% # Class of committed instruction
system.cpu1.commit.op_class_0::SimdFloatReduceAdd            0      0.00%     63.46% # Class of committed instruction
system.cpu1.commit.op_class_0::SimdFloatReduceCmp            0      0.00%     63.46% # Class of committed instruction
system.cpu1.commit.op_class_0::SimdAes              0      0.00%     63.46% # Class of committed instruction
system.cpu1.commit.op_class_0::SimdAesMix            0      0.00%     63.46% # Class of committed instruction
system.cpu1.commit.op_class_0::SimdSha1Hash            0      0.00%     63.46% # Class of committed instruction
system.cpu1.commit.op_class_0::SimdSha1Hash2            0      0.00%     63.46% # Class of committed instruction
system.cpu1.commit.op_class_0::SimdSha256Hash            0      0.00%     63.46% # Class of committed instruction
system.cpu1.commit.op_class_0::SimdSha256Hash2            0      0.00%     63.46% # Class of committed instruction
system.cpu1.commit.op_class_0::SimdShaSigma2            0      0.00%     63.46% # Class of committed instruction
system.cpu1.commit.op_class_0::SimdShaSigma3            0      0.00%     63.46% # Class of committed instruction
system.cpu1.commit.op_class_0::SimdPredAlu            0      0.00%     63.46% # Class of committed instruction
system.cpu1.commit.op_class_0::MemRead       10266664     30.85%     94.30% # Class of committed instruction
system.cpu1.commit.op_class_0::MemWrite       1896279      5.70%    100.00% # Class of committed instruction
system.cpu1.commit.op_class_0::FloatMemRead            0      0.00%    100.00% # Class of committed instruction
system.cpu1.commit.op_class_0::FloatMemWrite           12      0.00%    100.00% # Class of committed instruction
system.cpu1.commit.op_class_0::IprAccess            0      0.00%    100.00% # Class of committed instruction
system.cpu1.commit.op_class_0::InstPrefetch            0      0.00%    100.00% # Class of committed instruction
system.cpu1.commit.op_class_0::total         33282591                       # Class of committed instruction
system.cpu1.commit.refs                      12162955                       # Number of memory references committed
system.cpu1.commit.swp_count                        0                       # Number of s/w prefetches committed
system.cpu1.commit.vec_insts                        0                       # Number of committed Vector instructions.
system.cpu1.committedInsts                   32264490                       # Number of Instructions Simulated
system.cpu1.committedOps                     33282591                       # Number of Ops (including micro ops) Simulated
system.cpu1.cpi                              6.172718                       # CPI: Cycles Per Instruction
system.cpu1.cpi_total                        6.172718                       # CPI: Total CPI of All Threads
system.cpu1.decode.BlockedCycles            177975028                       # Number of cycles decode is blocked
system.cpu1.decode.BranchMispred               339099                       # Number of times decode detected a branch misprediction
system.cpu1.decode.BranchResolved             4470554                       # Number of times decode resolved a branch
system.cpu1.decode.DecodedInsts              40515152                       # Number of instructions handled by decode
system.cpu1.decode.IdleCycles                 5903365                       # Number of cycles decode is idle
system.cpu1.decode.RunCycles                 12247945                       # Number of cycles decode is running
system.cpu1.decode.SquashCycles                487902                       # Number of cycles decode is squashing
system.cpu1.decode.SquashedInsts               615963                       # Number of squashed instructions handled by decode
system.cpu1.decode.UnblockCycles              2381555                       # Number of cycles decode is unblocking
system.cpu1.dtb.accesses                            0                       # DTB accesses
system.cpu1.dtb.hits                                0                       # DTB hits
system.cpu1.dtb.misses                              0                       # DTB misses
system.cpu1.dtb.read_accesses                       0                       # DTB read accesses
system.cpu1.dtb.read_hits                           0                       # DTB read hits
system.cpu1.dtb.read_misses                         0                       # DTB read misses
system.cpu1.dtb.write_accesses                      0                       # DTB write accesses
system.cpu1.dtb.write_hits                          0                       # DTB write hits
system.cpu1.dtb.write_misses                        0                       # DTB write misses
system.cpu1.fetch.Branches                    8966347                       # Number of branches that fetch encountered
system.cpu1.fetch.CacheLines                  5230520                       # Number of cache lines fetched
system.cpu1.fetch.Cycles                    192500475                       # Number of cycles fetch has run and was not squashing or blocked
system.cpu1.fetch.IcacheSquashes                59568                       # Number of outstanding Icache misses that were squashed
system.cpu1.fetch.Insts                      41418985                       # Number of instructions fetch has processed
system.cpu1.fetch.MiscStallCycles                   1                       # Number of cycles fetch has spent waiting on interrupts, or bad addresses, or out of MSHRs
system.cpu1.fetch.SquashCycles                1646978                       # Number of cycles fetch has spent squashing
system.cpu1.fetch.branchRate                 0.045021                       # Number of branch fetches per cycle
system.cpu1.fetch.icacheStallCycles           5671830                       # Number of cycles fetch is stalled on an Icache miss
system.cpu1.fetch.predictedBranches           4914098                       # Number of branches that fetch has predicted taken
system.cpu1.fetch.rate                       0.207969                       # Number of inst fetches per cycle
system.cpu1.fetch.rateDist::samples         198995795                       # Number of instructions fetched each cycle (Total)
system.cpu1.fetch.rateDist::mean             0.213258                       # Number of instructions fetched each cycle (Total)
system.cpu1.fetch.rateDist::stdev            0.658824                       # Number of instructions fetched each cycle (Total)
system.cpu1.fetch.rateDist::underflows              0      0.00%      0.00% # Number of instructions fetched each cycle (Total)
system.cpu1.fetch.rateDist::0               174008577     87.44%     87.44% # Number of instructions fetched each cycle (Total)
system.cpu1.fetch.rateDist::1                14254173      7.16%     94.61% # Number of instructions fetched each cycle (Total)
system.cpu1.fetch.rateDist::2                 5876632      2.95%     97.56% # Number of instructions fetched each cycle (Total)
system.cpu1.fetch.rateDist::3                 3456377      1.74%     99.30% # Number of instructions fetched each cycle (Total)
system.cpu1.fetch.rateDist::4                  943144      0.47%     99.77% # Number of instructions fetched each cycle (Total)
system.cpu1.fetch.rateDist::5                  453437      0.23%    100.00% # Number of instructions fetched each cycle (Total)
system.cpu1.fetch.rateDist::6                    3195      0.00%    100.00% # Number of instructions fetched each cycle (Total)
system.cpu1.fetch.rateDist::7                     135      0.00%    100.00% # Number of instructions fetched each cycle (Total)
system.cpu1.fetch.rateDist::8                     125      0.00%    100.00% # Number of instructions fetched each cycle (Total)
system.cpu1.fetch.rateDist::overflows               0      0.00%    100.00% # Number of instructions fetched each cycle (Total)
system.cpu1.fetch.rateDist::min_value               0                       # Number of instructions fetched each cycle (Total)
system.cpu1.fetch.rateDist::max_value               8                       # Number of instructions fetched each cycle (Total)
system.cpu1.fetch.rateDist::total           198995795                       # Number of instructions fetched each cycle (Total)
system.cpu1.fp_regfile_reads                       12                       # number of floating regfile reads
system.cpu1.idleCycles                         163798                       # Total number of cycles that the CPU has spent unscheduled due to idling
system.cpu1.iew.branchMispredicts              524659                       # Number of branch mispredicts detected at execute
system.cpu1.iew.exec_branches                 7754069                       # Number of branches executed
system.cpu1.iew.exec_nop                            0                       # number of nop insts executed
system.cpu1.iew.exec_rate                    0.184706                       # Inst execution rate
system.cpu1.iew.exec_refs                    13183721                       # number of memory reference insts executed
system.cpu1.iew.exec_stores                   2947966                       # Number of stores executed
system.cpu1.iew.exec_swp                            0                       # number of swp insts executed
system.cpu1.iew.iewBlockCycles              153296420                       # Number of cycles IEW is blocking
system.cpu1.iew.iewDispLoadInsts             10400806                       # Number of dispatched load instructions
system.cpu1.iew.iewDispNonSpecInsts           1018542                       # Number of dispatched non-speculative instructions
system.cpu1.iew.iewDispSquashedInsts           245572                       # Number of squashed instructions skipped by dispatch
system.cpu1.iew.iewDispStoreInsts             2988108                       # Number of dispatched store instructions
system.cpu1.iew.iewDispatchedInsts           38648680                       # Number of instructions dispatched to IQ
system.cpu1.iew.iewExecLoadInsts             10235755                       # Number of load instructions executed
system.cpu1.iew.iewExecSquashedInsts           650166                       # Number of squashed instructions skipped in execute
system.cpu1.iew.iewExecutedInsts             36785896                       # Number of executed instructions
system.cpu1.iew.iewIQFullEvents               1013526                       # Number of times the IQ has become full, causing a stall
system.cpu1.iew.iewIdleCycles                       0                       # Number of cycles IEW is idle
system.cpu1.iew.iewLSQFullEvents              3027685                       # Number of times the LSQ has become full, causing a stall
system.cpu1.iew.iewSquashCycles                487902                       # Number of cycles IEW is squashing
system.cpu1.iew.iewUnblockCycles              5157953                       # Number of cycles IEW is unblocking
system.cpu1.iew.lsq.thread0.blockedLoads            0                       # Number of blocked loads due to partial load-store forwarding
system.cpu1.iew.lsq.thread0.cacheBlocked        40887                       # Number of times an access to memory failed due to the cache being blocked
system.cpu1.iew.lsq.thread0.forwLoads          163003                       # Number of loads that had data forwarded from stores
system.cpu1.iew.lsq.thread0.ignoredResponses         4743                       # Number of memory responses ignored because the instruction is squashed
system.cpu1.iew.lsq.thread0.invAddrLoads            0                       # Number of loads ignored due to an invalid address
system.cpu1.iew.lsq.thread0.invAddrSwpfs            0                       # Number of software prefetches ignored due to an invalid address
system.cpu1.iew.lsq.thread0.memOrderViolation          125                       # Number of memory ordering violations
system.cpu1.iew.lsq.thread0.rescheduledLoads          492                       # Number of loads that were rescheduled
system.cpu1.iew.lsq.thread0.squashedLoads      1152071                       # Number of loads squashed
system.cpu1.iew.lsq.thread0.squashedStores        73888                       # Number of stores squashed
system.cpu1.iew.memOrderViolationEvents           125                       # Number of memory order violations
system.cpu1.iew.predictedNotTakenIncorrect        94638                       # Number of branches that were predicted not taken incorrectly
system.cpu1.iew.predictedTakenIncorrect        430021                       # Number of branches that were predicted taken incorrectly
system.cpu1.iew.wb_consumers                 21821749                       # num instructions consuming a value
system.cpu1.iew.wb_count                     36388835                       # cumulative count of insts written-back
system.cpu1.iew.wb_fanout                    0.857824                       # average fanout of values written-back
system.cpu1.iew.wb_producers                 18719212                       # num instructions producing a value
system.cpu1.iew.wb_rate                      0.182712                       # insts written-back per cycle
system.cpu1.iew.wb_sent                      36399352                       # cumulative count of insts sent to commit
system.cpu1.int_regfile_reads                45172807                       # number of integer regfile reads
system.cpu1.int_regfile_writes               24878925                       # number of integer regfile writes
system.cpu1.ipc                              0.162003                       # IPC: Instructions Per Cycle
system.cpu1.ipc_total                        0.162003                       # IPC: Total IPC of All Threads
system.cpu1.iq.FU_type_0::No_OpClass          2036079      5.44%      5.44% # Type of FU issued
system.cpu1.iq.FU_type_0::IntAlu             22122129     59.09%     64.53% # Type of FU issued
system.cpu1.iq.FU_type_0::IntMult                  45      0.00%     64.53% # Type of FU issued
system.cpu1.iq.FU_type_0::IntDiv                   84      0.00%     64.53% # Type of FU issued
system.cpu1.iq.FU_type_0::FloatAdd                  0      0.00%     64.53% # Type of FU issued
system.cpu1.iq.FU_type_0::FloatCmp                  0      0.00%     64.53% # Type of FU issued
system.cpu1.iq.FU_type_0::FloatCvt                  0      0.00%     64.53% # Type of FU issued
system.cpu1.iq.FU_type_0::FloatMult                 0      0.00%     64.53% # Type of FU issued
system.cpu1.iq.FU_type_0::FloatMultAcc              0      0.00%     64.53% # Type of FU issued
system.cpu1.iq.FU_type_0::FloatDiv                  0      0.00%     64.53% # Type of FU issued
system.cpu1.iq.FU_type_0::FloatMisc                 0      0.00%     64.53% # Type of FU issued
system.cpu1.iq.FU_type_0::FloatSqrt                 0      0.00%     64.53% # Type of FU issued
system.cpu1.iq.FU_type_0::SimdAdd                   0      0.00%     64.53% # Type of FU issued
system.cpu1.iq.FU_type_0::SimdAddAcc                0      0.00%     64.53% # Type of FU issued
system.cpu1.iq.FU_type_0::SimdAlu                   0      0.00%     64.53% # Type of FU issued
system.cpu1.iq.FU_type_0::SimdCmp                   0      0.00%     64.53% # Type of FU issued
system.cpu1.iq.FU_type_0::SimdCvt                   0      0.00%     64.53% # Type of FU issued
system.cpu1.iq.FU_type_0::SimdMisc                  0      0.00%     64.53% # Type of FU issued
system.cpu1.iq.FU_type_0::SimdMult                  0      0.00%     64.53% # Type of FU issued
system.cpu1.iq.FU_type_0::SimdMultAcc               0      0.00%     64.53% # Type of FU issued
system.cpu1.iq.FU_type_0::SimdShift                 0      0.00%     64.53% # Type of FU issued
system.cpu1.iq.FU_type_0::SimdShiftAcc              0      0.00%     64.53% # Type of FU issued
system.cpu1.iq.FU_type_0::SimdDiv                   0      0.00%     64.53% # Type of FU issued
system.cpu1.iq.FU_type_0::SimdSqrt                  0      0.00%     64.53% # Type of FU issued
system.cpu1.iq.FU_type_0::SimdFloatAdd              0      0.00%     64.53% # Type of FU issued
system.cpu1.iq.FU_type_0::SimdFloatAlu              0      0.00%     64.53% # Type of FU issued
system.cpu1.iq.FU_type_0::SimdFloatCmp              0      0.00%     64.53% # Type of FU issued
system.cpu1.iq.FU_type_0::SimdFloatCvt              0      0.00%     64.53% # Type of FU issued
system.cpu1.iq.FU_type_0::SimdFloatDiv              0      0.00%     64.53% # Type of FU issued
system.cpu1.iq.FU_type_0::SimdFloatMisc             0      0.00%     64.53% # Type of FU issued
system.cpu1.iq.FU_type_0::SimdFloatMult             0      0.00%     64.53% # Type of FU issued
system.cpu1.iq.FU_type_0::SimdFloatMultAcc            0      0.00%     64.53% # Type of FU issued
system.cpu1.iq.FU_type_0::SimdFloatSqrt             0      0.00%     64.53% # Type of FU issued
system.cpu1.iq.FU_type_0::SimdReduceAdd             0      0.00%     64.53% # Type of FU issued
system.cpu1.iq.FU_type_0::SimdReduceAlu             0      0.00%     64.53% # Type of FU issued
system.cpu1.iq.FU_type_0::SimdReduceCmp             0      0.00%     64.53% # Type of FU issued
system.cpu1.iq.FU_type_0::SimdFloatReduceAdd            0      0.00%     64.53% # Type of FU issued
system.cpu1.iq.FU_type_0::SimdFloatReduceCmp            0      0.00%     64.53% # Type of FU issued
system.cpu1.iq.FU_type_0::SimdAes                   0      0.00%     64.53% # Type of FU issued
system.cpu1.iq.FU_type_0::SimdAesMix                0      0.00%     64.53% # Type of FU issued
system.cpu1.iq.FU_type_0::SimdSha1Hash              0      0.00%     64.53% # Type of FU issued
system.cpu1.iq.FU_type_0::SimdSha1Hash2             0      0.00%     64.53% # Type of FU issued
system.cpu1.iq.FU_type_0::SimdSha256Hash            0      0.00%     64.53% # Type of FU issued
system.cpu1.iq.FU_type_0::SimdSha256Hash2            0      0.00%     64.53% # Type of FU issued
system.cpu1.iq.FU_type_0::SimdShaSigma2             0      0.00%     64.53% # Type of FU issued
system.cpu1.iq.FU_type_0::SimdShaSigma3             0      0.00%     64.53% # Type of FU issued
system.cpu1.iq.FU_type_0::SimdPredAlu               0      0.00%     64.53% # Type of FU issued
system.cpu1.iq.FU_type_0::MemRead            11339137     30.29%     94.82% # Type of FU issued
system.cpu1.iq.FU_type_0::MemWrite            1938576      5.18%    100.00% # Type of FU issued
system.cpu1.iq.FU_type_0::FloatMemRead              0      0.00%    100.00% # Type of FU issued
system.cpu1.iq.FU_type_0::FloatMemWrite            12      0.00%    100.00% # Type of FU issued
system.cpu1.iq.FU_type_0::IprAccess                 0      0.00%    100.00% # Type of FU issued
system.cpu1.iq.FU_type_0::InstPrefetch              0      0.00%    100.00% # Type of FU issued
system.cpu1.iq.FU_type_0::total              37436062                       # Type of FU issued
system.cpu1.iq.fp_alu_accesses                     14                       # Number of floating point alu accesses
system.cpu1.iq.fp_inst_queue_reads                 26                       # Number of floating instruction queue reads
system.cpu1.iq.fp_inst_queue_wakeup_accesses           12                       # Number of floating instruction queue wakeup accesses
system.cpu1.iq.fp_inst_queue_writes                12                       # Number of floating instruction queue writes
system.cpu1.iq.fu_busy_cnt                    1191247                       # FU busy when requested
system.cpu1.iq.fu_busy_rate                  0.031821                       # FU busy rate (busy events/executed inst)
system.cpu1.iq.fu_full::No_OpClass                  0      0.00%      0.00% # attempts to use FU when none available
system.cpu1.iq.fu_full::IntAlu                 260568     21.87%     21.87% # attempts to use FU when none available
system.cpu1.iq.fu_full::IntMult                     0      0.00%     21.87% # attempts to use FU when none available
system.cpu1.iq.fu_full::IntDiv                      0      0.00%     21.87% # attempts to use FU when none available
system.cpu1.iq.fu_full::FloatAdd                    0      0.00%     21.87% # attempts to use FU when none available
system.cpu1.iq.fu_full::FloatCmp                    0      0.00%     21.87% # attempts to use FU when none available
system.cpu1.iq.fu_full::FloatCvt                    0      0.00%     21.87% # attempts to use FU when none available
system.cpu1.iq.fu_full::FloatMult                   0      0.00%     21.87% # attempts to use FU when none available
system.cpu1.iq.fu_full::FloatMultAcc                0      0.00%     21.87% # attempts to use FU when none available
system.cpu1.iq.fu_full::FloatDiv                    0      0.00%     21.87% # attempts to use FU when none available
system.cpu1.iq.fu_full::FloatMisc                   0      0.00%     21.87% # attempts to use FU when none available
system.cpu1.iq.fu_full::FloatSqrt                   0      0.00%     21.87% # attempts to use FU when none available
system.cpu1.iq.fu_full::SimdAdd                     0      0.00%     21.87% # attempts to use FU when none available
system.cpu1.iq.fu_full::SimdAddAcc                  0      0.00%     21.87% # attempts to use FU when none available
system.cpu1.iq.fu_full::SimdAlu                     0      0.00%     21.87% # attempts to use FU when none available
system.cpu1.iq.fu_full::SimdCmp                     0      0.00%     21.87% # attempts to use FU when none available
system.cpu1.iq.fu_full::SimdCvt                     0      0.00%     21.87% # attempts to use FU when none available
system.cpu1.iq.fu_full::SimdMisc                    0      0.00%     21.87% # attempts to use FU when none available
system.cpu1.iq.fu_full::SimdMult                    0      0.00%     21.87% # attempts to use FU when none available
system.cpu1.iq.fu_full::SimdMultAcc                 0      0.00%     21.87% # attempts to use FU when none available
system.cpu1.iq.fu_full::SimdShift                   0      0.00%     21.87% # attempts to use FU when none available
system.cpu1.iq.fu_full::SimdShiftAcc                0      0.00%     21.87% # attempts to use FU when none available
system.cpu1.iq.fu_full::SimdDiv                     0      0.00%     21.87% # attempts to use FU when none available
system.cpu1.iq.fu_full::SimdSqrt                    0      0.00%     21.87% # attempts to use FU when none available
system.cpu1.iq.fu_full::SimdFloatAdd                0      0.00%     21.87% # attempts to use FU when none available
system.cpu1.iq.fu_full::SimdFloatAlu                0      0.00%     21.87% # attempts to use FU when none available
system.cpu1.iq.fu_full::SimdFloatCmp                0      0.00%     21.87% # attempts to use FU when none available
system.cpu1.iq.fu_full::SimdFloatCvt                0      0.00%     21.87% # attempts to use FU when none available
system.cpu1.iq.fu_full::SimdFloatDiv                0      0.00%     21.87% # attempts to use FU when none available
system.cpu1.iq.fu_full::SimdFloatMisc               0      0.00%     21.87% # attempts to use FU when none available
system.cpu1.iq.fu_full::SimdFloatMult               0      0.00%     21.87% # attempts to use FU when none available
system.cpu1.iq.fu_full::SimdFloatMultAcc            0      0.00%     21.87% # attempts to use FU when none available
system.cpu1.iq.fu_full::SimdFloatSqrt               0      0.00%     21.87% # attempts to use FU when none available
system.cpu1.iq.fu_full::SimdReduceAdd               0      0.00%     21.87% # attempts to use FU when none available
system.cpu1.iq.fu_full::SimdReduceAlu               0      0.00%     21.87% # attempts to use FU when none available
system.cpu1.iq.fu_full::SimdReduceCmp               0      0.00%     21.87% # attempts to use FU when none available
system.cpu1.iq.fu_full::SimdFloatReduceAdd            0      0.00%     21.87% # attempts to use FU when none available
system.cpu1.iq.fu_full::SimdFloatReduceCmp            0      0.00%     21.87% # attempts to use FU when none available
system.cpu1.iq.fu_full::SimdAes                     0      0.00%     21.87% # attempts to use FU when none available
system.cpu1.iq.fu_full::SimdAesMix                  0      0.00%     21.87% # attempts to use FU when none available
system.cpu1.iq.fu_full::SimdSha1Hash                0      0.00%     21.87% # attempts to use FU when none available
system.cpu1.iq.fu_full::SimdSha1Hash2               0      0.00%     21.87% # attempts to use FU when none available
system.cpu1.iq.fu_full::SimdSha256Hash              0      0.00%     21.87% # attempts to use FU when none available
system.cpu1.iq.fu_full::SimdSha256Hash2             0      0.00%     21.87% # attempts to use FU when none available
system.cpu1.iq.fu_full::SimdShaSigma2               0      0.00%     21.87% # attempts to use FU when none available
system.cpu1.iq.fu_full::SimdShaSigma3               0      0.00%     21.87% # attempts to use FU when none available
system.cpu1.iq.fu_full::SimdPredAlu                 0      0.00%     21.87% # attempts to use FU when none available
system.cpu1.iq.fu_full::MemRead                821433     68.96%     90.83% # attempts to use FU when none available
system.cpu1.iq.fu_full::MemWrite               109244      9.17%    100.00% # attempts to use FU when none available
[...]
system.cpu1.dcache.ReadReq_avg_miss_latency::total 66469.051941                       # average ReadReq miss latency
system.cpu1.dcache.ReadReq_mshr_hits::.cpu1.data      2648720                       # number of ReadReq MSHR hits
system.cpu1.dcache.ReadReq_mshr_hits::total      2648720                       # number of ReadReq MSHR hits
system.cpu1.dcache.ReadReq_mshr_misses::.cpu1.data      1039088                       # number of ReadReq MSHR misses
system.cpu1.dcache.ReadReq_mshr_misses::total      1039088                       # number of ReadReq MSHR misses
system.cpu1.dcache.ReadReq_mshr_miss_latency::.cpu1.data  85856497500                       # number of ReadReq MSHR miss cycles
system.cpu1.dcache.ReadReq_mshr_miss_latency::total  85856497500                       # number of ReadReq MSHR miss cycles
system.cpu1.dcache.ReadReq_mshr_miss_rate::.cpu1.data     0.050941                       # mshr miss rate for ReadReq accesses
system.cpu1.dcache.ReadReq_mshr_miss_rate::total     0.050941                       # mshr miss rate for ReadReq accesses
system.cpu1.dcache.ReadReq_avg_mshr_miss_latency::.cpu1.data 82626.781851                       # average ReadReq mshr miss latency
system.cpu1.dcache.ReadReq_avg_mshr_miss_latency::total 82626.781851                       # average ReadReq mshr miss latency
system.cpu1.dcache.WriteReq_hits::.cpu1.data       236689                       # number of WriteReq hits
system.cpu1.dcache.WriteReq_hits::total        236689                       # number of WriteReq hits
system.cpu1.dcache.WriteReq_misses::.cpu1.data       589353                       # number of WriteReq misses
system.cpu1.dcache.WriteReq_misses::total       589353                       # number of WriteReq misses
system.cpu1.dcache.WriteReq_miss_latency::.cpu1.data  46725334497                       # number of WriteReq miss cycles
system.cpu1.dcache.WriteReq_miss_latency::total  46725334497                       # number of WriteReq miss cycles
system.cpu1.dcache.WriteReq_accesses::.cpu1.data       826042                       # number of WriteReq accesses(hits+misses)
system.cpu1.dcache.WriteReq_accesses::total       826042                       # number of WriteReq accesses(hits+misses)
system.cpu1.dcache.WriteReq_miss_rate::.cpu1.data     0.713466                       # miss rate for WriteReq accesses
system.cpu1.dcache.WriteReq_miss_rate::total     0.713466                       # miss rate for WriteReq accesses
system.cpu1.dcache.WriteReq_avg_miss_latency::.cpu1.data 79282.424111                       # average WriteReq miss latency
system.cpu1.dcache.WriteReq_avg_miss_latency::total 79282.424111                       # average WriteReq miss latency
system.cpu1.dcache.WriteReq_mshr_hits::.cpu1.data       550299                       # number of WriteReq MSHR hits
system.cpu1.dcache.WriteReq_mshr_hits::total       550299                       # number of WriteReq MSHR hits
system.cpu1.dcache.WriteReq_mshr_misses::.cpu1.data        39054                       # number of WriteReq MSHR misses
system.cpu1.dcache.WriteReq_mshr_misses::total        39054                       # number of WriteReq MSHR misses
system.cpu1.dcache.WriteReq_mshr_miss_latency::.cpu1.data   4070852499                       # number of WriteReq MSHR miss cycles
system.cpu1.dcache.WriteReq_mshr_miss_latency::total   4070852499                       # number of WriteReq MSHR miss cycles
system.cpu1.dcache.WriteReq_mshr_miss_rate::.cpu1.data     0.047278                       # mshr miss rate for WriteReq accesses
system.cpu1.dcache.WriteReq_mshr_miss_rate::total     0.047278                       # mshr miss rate for WriteReq accesses
system.cpu1.dcache.WriteReq_avg_mshr_miss_latency::.cpu1.data 104236.505838                       # average WriteReq mshr miss latency
system.cpu1.dcache.WriteReq_avg_mshr_miss_latency::total 104236.505838                       # average WriteReq mshr miss latency
system.cpu1.dcache.LoadLockedReq_hits::.cpu1.data       552800                       # number of LoadLockedReq hits
system.cpu1.dcache.LoadLockedReq_hits::total       552800                       # number of LoadLockedReq hits
system.cpu1.dcache.LoadLockedReq_misses::.cpu1.data         6353                       # number of LoadLockedReq misses
system.cpu1.dcache.LoadLockedReq_misses::total         6353                       # number of LoadLockedReq misses
system.cpu1.dcache.LoadLockedReq_miss_latency::.cpu1.data    161889000                       # number of LoadLockedReq miss cycles
system.cpu1.dcache.LoadLockedReq_miss_latency::total    161889000                       # number of LoadLockedReq miss cycles
system.cpu1.dcache.LoadLockedReq_accesses::.cpu1.data       559153                       # number of LoadLockedReq accesses(hits+misses)
system.cpu1.dcache.LoadLockedReq_accesses::total       559153                       # number of LoadLockedReq accesses(hits+misses)
system.cpu1.dcache.LoadLockedReq_miss_rate::.cpu1.data     0.011362                       # miss rate for LoadLockedReq accesses
system.cpu1.dcache.LoadLockedReq_miss_rate::total     0.011362                       # miss rate for LoadLockedReq accesses
system.cpu1.dcache.LoadLockedReq_avg_miss_latency::.cpu1.data 25482.291831                       # average LoadLockedReq miss latency
system.cpu1.dcache.LoadLockedReq_avg_miss_latency::total 25482.291831                       # average LoadLockedReq miss latency
system.cpu1.dcache.LoadLockedReq_mshr_hits::.cpu1.data          117                       # number of LoadLockedReq MSHR hits
system.cpu1.dcache.LoadLockedReq_mshr_hits::total          117                       # number of LoadLockedReq MSHR hits
system.cpu1.dcache.LoadLockedReq_mshr_misses::.cpu1.data         6236                       # number of LoadLockedReq MSHR misses
system.cpu1.dcache.LoadLockedReq_mshr_misses::total         6236                       # number of LoadLockedReq MSHR misses
system.cpu1.dcache.LoadLockedReq_mshr_miss_latency::.cpu1.data    146057000                       # number of LoadLockedReq MSHR miss cycles
system.cpu1.dcache.LoadLockedReq_mshr_miss_latency::total    146057000                       # number of LoadLockedReq MSHR miss cycles
system.cpu1.dcache.LoadLockedReq_mshr_miss_rate::.cpu1.data     0.011153                       # mshr miss rate for LoadLockedReq accesses
system.cpu1.dcache.LoadLockedReq_mshr_miss_rate::total     0.011153                       # mshr miss rate for LoadLockedReq accesses
system.cpu1.dcache.LoadLockedReq_avg_mshr_miss_latency::.cpu1.data 23421.584349                       # average LoadLockedReq mshr miss latency
system.cpu1.dcache.LoadLockedReq_avg_mshr_miss_latency::total 23421.584349                       # average LoadLockedReq mshr miss latency
system.cpu1.dcache.StoreCondReq_hits::.cpu1.data       558676                       # number of StoreCondReq hits
system.cpu1.dcache.StoreCondReq_hits::total       558676                       # number of StoreCondReq hits
system.cpu1.dcache.StoreCondReq_misses::.cpu1.data          313                       # number of StoreCondReq misses
system.cpu1.dcache.StoreCondReq_misses::total          313                       # number of StoreCondReq misses
system.cpu1.dcache.StoreCondReq_miss_latency::.cpu1.data      2594500                       # number of StoreCondReq miss cycles
system.cpu1.dcache.StoreCondReq_miss_latency::total      2594500                       # number of StoreCondReq miss cycles
system.cpu1.dcache.StoreCondReq_accesses::.cpu1.data       558989                       # number of StoreCondReq accesses(hits+misses)
system.cpu1.dcache.StoreCondReq_accesses::total       558989                       # number of StoreCondReq accesses(hits+misses)
system.cpu1.dcache.StoreCondReq_miss_rate::.cpu1.data     0.000560                       # miss rate for StoreCondReq accesses
system.cpu1.dcache.StoreCondReq_miss_rate::total     0.000560                       # miss rate for StoreCondReq accesses
system.cpu1.dcache.StoreCondReq_avg_miss_latency::.cpu1.data  8289.137380                       # average StoreCondReq miss latency
system.cpu1.dcache.StoreCondReq_avg_miss_latency::total  8289.137380                       # average StoreCondReq miss latency
system.cpu1.dcache.StoreCondReq_mshr_misses::.cpu1.data          313                       # number of StoreCondReq MSHR misses
system.cpu1.dcache.StoreCondReq_mshr_misses::total          313                       # number of StoreCondReq MSHR misses
system.cpu1.dcache.StoreCondReq_mshr_miss_latency::.cpu1.data      2281500                       # number of StoreCondReq MSHR miss cycles
system.cpu1.dcache.StoreCondReq_mshr_miss_latency::total      2281500                       # number of StoreCondReq MSHR miss cycles
system.cpu1.dcache.StoreCondReq_mshr_miss_rate::.cpu1.data     0.000560                       # mshr miss rate for StoreCondReq accesses
system.cpu1.dcache.StoreCondReq_mshr_miss_rate::total     0.000560                       # mshr miss rate for StoreCondReq accesses
system.cpu1.dcache.StoreCondReq_avg_mshr_miss_latency::.cpu1.data  7289.137380                       # average StoreCondReq mshr miss latency
system.cpu1.dcache.StoreCondReq_avg_mshr_miss_latency::total  7289.137380                       # average StoreCondReq mshr miss latency
system.cpu1.dcache.SwapReq_hits::.cpu1.data          522                       # number of SwapReq hits
system.cpu1.dcache.SwapReq_hits::total            522                       # number of SwapReq hits
system.cpu1.dcache.SwapReq_misses::.cpu1.data          554                       # number of SwapReq misses
system.cpu1.dcache.SwapReq_misses::total          554                       # number of SwapReq misses
system.cpu1.dcache.SwapReq_miss_latency::.cpu1.data     22324500                       # number of SwapReq miss cycles
system.cpu1.dcache.SwapReq_miss_latency::total     22324500                       # number of SwapReq miss cycles
system.cpu1.dcache.SwapReq_accesses::.cpu1.data         1076                       # number of SwapReq accesses(hits+misses)
system.cpu1.dcache.SwapReq_accesses::total         1076                       # number of SwapReq accesses(hits+misses)
system.cpu1.dcache.SwapReq_miss_rate::.cpu1.data     0.514870                       # miss rate for SwapReq accesses
system.cpu1.dcache.SwapReq_miss_rate::total     0.514870                       # miss rate for SwapReq accesses
system.cpu1.dcache.SwapReq_avg_miss_latency::.cpu1.data 40296.931408                       # average SwapReq miss latency
system.cpu1.dcache.SwapReq_avg_miss_latency::total 40296.931408                       # average SwapReq miss latency
system.cpu1.dcache.SwapReq_mshr_misses::.cpu1.data          554                       # number of SwapReq MSHR misses
system.cpu1.dcache.SwapReq_mshr_misses::total          554                       # number of SwapReq MSHR misses
system.cpu1.dcache.SwapReq_mshr_miss_latency::.cpu1.data     21770500                       # number of SwapReq MSHR miss cycles
system.cpu1.dcache.SwapReq_mshr_miss_latency::total     21770500                       # number of SwapReq MSHR miss cycles
system.cpu1.dcache.SwapReq_mshr_miss_rate::.cpu1.data     0.514870                       # mshr miss rate for SwapReq accesses
system.cpu1.dcache.SwapReq_mshr_miss_rate::total     0.514870                       # mshr miss rate for SwapReq accesses
system.cpu1.dcache.SwapReq_avg_mshr_miss_latency::.cpu1.data 39296.931408                       # average SwapReq mshr miss latency
system.cpu1.dcache.SwapReq_avg_mshr_miss_latency::total 39296.931408                       # average SwapReq mshr miss latency
system.cpu1.dcache.tags.pwrStateResidencyTicks::UNDEFINED 119826564000                       # Cumulative time (in ticks) in various power states
system.cpu1.dcache.tags.tagsinuse           31.652800                       # Cycle average of tags in use
system.cpu1.dcache.tags.total_refs           19145876                       # Total number of references to valid blocks.
system.cpu1.dcache.tags.sampled_refs          1084519                       # Sample count of references to valid blocks.
system.cpu1.dcache.tags.avg_refs            17.653795                       # Average number of references to valid blocks.
system.cpu1.dcache.tags.warmup_cycle                0                       # Cycle when the warmup percentage was hit.
system.cpu1.dcache.tags.occ_blocks::.cpu1.data    31.652800                       # Average occupied blocks per requestor
system.cpu1.dcache.tags.occ_percent::.cpu1.data     0.989150                       # Average percentage of cache occupancy
system.cpu1.dcache.tags.occ_percent::total     0.989150                       # Average percentage of cache occupancy
system.cpu1.dcache.tags.occ_task_id_blocks::1024           27                       # Occupied blocks per task id
system.cpu1.dcache.tags.age_task_id_blocks_1024::1            3                       # Occupied blocks per task id
system.cpu1.dcache.tags.age_task_id_blocks_1024::2           24                       # Occupied blocks per task id
system.cpu1.dcache.tags.occ_task_id_percent::1024     0.843750                       # Percentage of cache occupancy per task id
system.cpu1.dcache.tags.tag_accesses         45771144                       # Number of tag accesses
system.cpu1.dcache.tags.data_accesses        45771144                       # Number of data accesses
system.cpu_clk_domain.clock                       500                       # Clock period in ticks
system.tol2bus.pwrStateResidencyTicks::UNDEFINED 119826564000                       # Cumulative time (in ticks) in various power states
system.tol2bus.trans_dist::ReadResp           3023933                       # Transaction distribution
system.tol2bus.trans_dist::WritebackDirty       769569                       # Transaction distribution
system.tol2bus.trans_dist::WritebackClean      2703878                       # Transaction distribution
system.tol2bus.trans_dist::CleanEvict         4101648                       # Transaction distribution
system.tol2bus.trans_dist::UpgradeReq            1172                       # Transaction distribution
system.tol2bus.trans_dist::SCUpgradeReq           853                       # Transaction distribution
system.tol2bus.trans_dist::UpgradeResp           2025                       # Transaction distribution
system.tol2bus.trans_dist::SCUpgradeFailReq            1                       # Transaction distribution
system.tol2bus.trans_dist::UpgradeFailResp            1                       # Transaction distribution
system.tol2bus.trans_dist::ReadExReq           101596                       # Transaction distribution
system.tol2bus.trans_dist::ReadExResp          101596                       # Transaction distribution
system.tol2bus.trans_dist::ReadCleanReq        259877                       # Transaction distribution
system.tol2bus.trans_dist::ReadSharedReq      2764057                       # Transaction distribution
system.tol2bus.trans_dist::InvalidateReq          338                       # Transaction distribution
system.tol2bus.trans_dist::InvalidateResp          338                       # Transaction distribution
system.tol2bus.pkt_count_system.cpu0.icache.mem_side::system.l2.cpu_side       764656                       # Packet count per connected master and slave (bytes)
system.tol2bus.pkt_count_system.cpu0.dcache.mem_side::system.l2.cpu_side      5343710                       # Packet count per connected master and slave (bytes)
system.tol2bus.pkt_count_system.cpu1.icache.mem_side::system.l2.cpu_side        14961                       # Packet count per connected master and slave (bytes)
system.tol2bus.pkt_count_system.cpu1.dcache.mem_side::system.l2.cpu_side      3251581                       # Packet count per connected master and slave (bytes)
system.tol2bus.pkt_count::total               9374908                       # Packet count per connected master and slave (bytes)
system.tol2bus.pkt_size_system.cpu0.icache.mem_side::system.l2.cpu_side     32625024                       # Cumulative packet size per connected master and slave (bytes)
system.tol2bus.pkt_size_system.cpu0.dcache.mem_side::system.l2.cpu_side    227854208                       # Cumulative packet size per connected master and slave (bytes)
system.tol2bus.pkt_size_system.cpu1.icache.mem_side::system.l2.cpu_side       638336                       # Cumulative packet size per connected master and slave (bytes)
system.tol2bus.pkt_size_system.cpu1.dcache.mem_side::system.l2.cpu_side    138632000                       # Cumulative packet size per connected master and slave (bytes)
system.tol2bus.pkt_size::total              399749568                       # Cumulative packet size per connected master and slave (bytes)
system.tol2bus.snoops                         4455974                       # Total snoops (count)
system.tol2bus.snoopTraffic                  22584960                       # Total snoop traffic (bytes)
system.tol2bus.snoop_fanout::samples          7579698                       # Request fanout histogram
system.tol2bus.snoop_fanout::mean            0.280344                       # Request fanout histogram
system.tol2bus.snoop_fanout::stdev           0.462624                       # Request fanout histogram
system.tol2bus.snoop_fanout::underflows             0      0.00%      0.00% # Request fanout histogram
system.tol2bus.snoop_fanout::0                5501275     72.58%     72.58% # Request fanout histogram
system.tol2bus.snoop_fanout::1                2031924     26.81%     99.39% # Request fanout histogram
system.tol2bus.snoop_fanout::2                  46499      0.61%    100.00% # Request fanout histogram
system.tol2bus.snoop_fanout::3                      0      0.00%    100.00% # Request fanout histogram
system.tol2bus.snoop_fanout::4                      0      0.00%    100.00% # Request fanout histogram
system.tol2bus.snoop_fanout::5                      0      0.00%    100.00% # Request fanout histogram
system.tol2bus.snoop_fanout::6                      0      0.00%    100.00% # Request fanout histogram
system.tol2bus.snoop_fanout::7                      0      0.00%    100.00% # Request fanout histogram
system.tol2bus.snoop_fanout::8                      0      0.00%    100.00% # Request fanout histogram
system.tol2bus.snoop_fanout::overflows              0      0.00%    100.00% # Request fanout histogram
system.tol2bus.snoop_fanout::min_value              0                       # Request fanout histogram
system.tol2bus.snoop_fanout::max_value              2                       # Request fanout histogram
system.tol2bus.snoop_fanout::total            7579698                       # Request fanout histogram
system.tol2bus.reqLayer0.occupancy         6248884997                       # Layer occupancy (ticks)
system.tol2bus.reqLayer0.utilization              5.2                       # Layer utilization (%)
system.tol2bus.respLayer1.occupancy        2673430717                       # Layer occupancy (ticks)
system.tol2bus.respLayer1.utilization             2.2                       # Layer utilization (%)
system.tol2bus.respLayer0.occupancy         382473220                       # Layer occupancy (ticks)
system.tol2bus.respLayer0.utilization             0.3                       # Layer utilization (%)
system.tol2bus.respLayer3.occupancy        1627604533                       # Layer occupancy (ticks)
system.tol2bus.respLayer3.utilization             1.4                       # Layer utilization (%)
system.tol2bus.respLayer2.occupancy           7502955                       # Layer occupancy (ticks)
system.tol2bus.respLayer2.utilization             0.0                       # Layer utilization (%)

---------- End Simulation Statistics   ----------
