
---------- Begin Simulation Statistics ----------
<<<<<<< HEAD
final_tick                               1986322390500                       # Number of ticks from beginning of simulation (restored from checkpoints and never reset)
host_inst_rate                                  96392                       # Simulator instruction rate (inst/s)
host_mem_usage                                 738824                       # Number of bytes of host memory used
host_op_rate                                    96703                       # Simulator op (including micro ops) rate (op/s)
host_seconds                                 24467.52                       # Real time elapsed on the host
host_tick_rate                               81182016                       # Simulator tick rate (ticks/s)
sim_freq                                 1000000000000                       # Frequency of simulated ticks
sim_insts                                  2358465828                       # Number of instructions simulated
sim_ops                                    2366075960                       # Number of ops (including micro ops) simulated
sim_seconds                                  1.986322                       # Number of seconds simulated
sim_ticks                                1986322390500                       # Number of ticks simulated
system.cpu0.branchPred.BTBCorrect                   0                       # Number of correct BTB predictions (this stat may not work properly.
system.cpu0.branchPred.BTBHitPct            87.339717                       # BTB Hit Percentage
system.cpu0.branchPred.BTBHits              299102284                       # Number of BTB hits
system.cpu0.branchPred.BTBLookups           342458499                       # Number of BTB lookups
system.cpu0.branchPred.RASInCorrect                 0                       # Number of incorrect RAS predictions.
system.cpu0.branchPred.condIncorrect         30690360                       # Number of conditional branches incorrect
system.cpu0.branchPred.condPredicted        451757021                       # Number of conditional branches predicted
system.cpu0.branchPred.indirectHits          40862059                       # Number of indirect target hits.
system.cpu0.branchPred.indirectLookups       41131371                       # Number of indirect predictor lookups.
system.cpu0.branchPred.indirectMisses          269312                       # Number of indirect misses.
system.cpu0.branchPred.lookups              588032499                       # Number of BP lookups
system.cpu0.branchPred.usedRAS                      0                       # Number of times the RAS was used to get a target.
system.cpu0.branchPredindirectMispredicted      3904066                       # Number of mispredicted indirect branches.
system.cpu0.commit.amos                       1901248                       # Number of atomic instructions committed
system.cpu0.commit.branchMispredicts         16952931                       # The number of times a branch was mispredicted
system.cpu0.commit.branches                 535012680                       # Number of branches committed
system.cpu0.commit.bw_lim_events             62159537                       # number cycles where commit BW limit reached
system.cpu0.commit.commitNonSpecStalls        5717994                       # The number of times commit has been forced to stall to communicate backwards
system.cpu0.commit.commitSquashedInsts      179311136                       # The number of squashed insts skipped by commit
system.cpu0.commit.committedInsts          2142486050                       # Number of instructions committed
system.cpu0.commit.committedOps            2144392586                       # Number of ops (including micro ops) committed
system.cpu0.commit.committed_per_cycle::samples   3491223231                       # Number of insts commited each cycle
system.cpu0.commit.committed_per_cycle::mean     0.614224                       # Number of insts commited each cycle
system.cpu0.commit.committed_per_cycle::stdev     1.387154                       # Number of insts commited each cycle
system.cpu0.commit.committed_per_cycle::underflows            0      0.00%      0.00% # Number of insts commited each cycle
system.cpu0.commit.committed_per_cycle::0   2462777846     70.54%     70.54% # Number of insts commited each cycle
system.cpu0.commit.committed_per_cycle::1    618004511     17.70%     88.24% # Number of insts commited each cycle
system.cpu0.commit.committed_per_cycle::2    134681867      3.86%     92.10% # Number of insts commited each cycle
system.cpu0.commit.committed_per_cycle::3    141125596      4.04%     96.14% # Number of insts commited each cycle
system.cpu0.commit.committed_per_cycle::4     44655758      1.28%     97.42% # Number of insts commited each cycle
system.cpu0.commit.committed_per_cycle::5     16503685      0.47%     97.90% # Number of insts commited each cycle
system.cpu0.commit.committed_per_cycle::6      3971217      0.11%     98.01% # Number of insts commited each cycle
system.cpu0.commit.committed_per_cycle::7      7343214      0.21%     98.22% # Number of insts commited each cycle
system.cpu0.commit.committed_per_cycle::8     62159537      1.78%    100.00% # Number of insts commited each cycle
system.cpu0.commit.committed_per_cycle::overflows            0      0.00%    100.00% # Number of insts commited each cycle
system.cpu0.commit.committed_per_cycle::min_value            0                       # Number of insts commited each cycle
system.cpu0.commit.committed_per_cycle::max_value            8                       # Number of insts commited each cycle
system.cpu0.commit.committed_per_cycle::total   3491223231                       # Number of insts commited each cycle
system.cpu0.commit.fp_insts                        50                       # Number of committed floating point instructions.
system.cpu0.commit.function_calls            43220445                       # Number of function calls committed.
system.cpu0.commit.int_insts               2071968368                       # Number of committed integer instructions.
system.cpu0.commit.loads                    668886693                       # Number of loads committed
system.cpu0.commit.membars                    3807637                       # Number of memory barriers committed
system.cpu0.commit.op_class_0::No_OpClass      3807643      0.18%      0.18% # Class of committed instruction
system.cpu0.commit.op_class_0::IntAlu      1188135953     55.41%     55.58% # Class of committed instruction
system.cpu0.commit.op_class_0::IntMult       18318163      0.85%     56.44% # Class of committed instruction
system.cpu0.commit.op_class_0::IntDiv         3801411      0.18%     56.62% # Class of committed instruction
system.cpu0.commit.op_class_0::FloatAdd             0      0.00%     56.62% # Class of committed instruction
system.cpu0.commit.op_class_0::FloatCmp             4      0.00%     56.62% # Class of committed instruction
system.cpu0.commit.op_class_0::FloatCvt            12      0.00%     56.62% # Class of committed instruction
system.cpu0.commit.op_class_0::FloatMult            0      0.00%     56.62% # Class of committed instruction
system.cpu0.commit.op_class_0::FloatMultAcc            0      0.00%     56.62% # Class of committed instruction
system.cpu0.commit.op_class_0::FloatDiv             2      0.00%     56.62% # Class of committed instruction
system.cpu0.commit.op_class_0::FloatMisc            4      0.00%     56.62% # Class of committed instruction
system.cpu0.commit.op_class_0::FloatSqrt            0      0.00%     56.62% # Class of committed instruction
system.cpu0.commit.op_class_0::SimdAdd              0      0.00%     56.62% # Class of committed instruction
system.cpu0.commit.op_class_0::SimdAddAcc            0      0.00%     56.62% # Class of committed instruction
system.cpu0.commit.op_class_0::SimdAlu              0      0.00%     56.62% # Class of committed instruction
system.cpu0.commit.op_class_0::SimdCmp              0      0.00%     56.62% # Class of committed instruction
system.cpu0.commit.op_class_0::SimdCvt              0      0.00%     56.62% # Class of committed instruction
system.cpu0.commit.op_class_0::SimdMisc             0      0.00%     56.62% # Class of committed instruction
system.cpu0.commit.op_class_0::SimdMult             0      0.00%     56.62% # Class of committed instruction
system.cpu0.commit.op_class_0::SimdMultAcc            0      0.00%     56.62% # Class of committed instruction
system.cpu0.commit.op_class_0::SimdShift            0      0.00%     56.62% # Class of committed instruction
system.cpu0.commit.op_class_0::SimdShiftAcc            0      0.00%     56.62% # Class of committed instruction
system.cpu0.commit.op_class_0::SimdDiv              0      0.00%     56.62% # Class of committed instruction
system.cpu0.commit.op_class_0::SimdSqrt             0      0.00%     56.62% # Class of committed instruction
system.cpu0.commit.op_class_0::SimdFloatAdd            0      0.00%     56.62% # Class of committed instruction
system.cpu0.commit.op_class_0::SimdFloatAlu            0      0.00%     56.62% # Class of committed instruction
system.cpu0.commit.op_class_0::SimdFloatCmp            0      0.00%     56.62% # Class of committed instruction
system.cpu0.commit.op_class_0::SimdFloatCvt            0      0.00%     56.62% # Class of committed instruction
system.cpu0.commit.op_class_0::SimdFloatDiv            0      0.00%     56.62% # Class of committed instruction
system.cpu0.commit.op_class_0::SimdFloatMisc            0      0.00%     56.62% # Class of committed instruction
system.cpu0.commit.op_class_0::SimdFloatMult            0      0.00%     56.62% # Class of committed instruction
system.cpu0.commit.op_class_0::SimdFloatMultAcc            0      0.00%     56.62% # Class of committed instruction
system.cpu0.commit.op_class_0::SimdFloatSqrt            0      0.00%     56.62% # Class of committed instruction
system.cpu0.commit.op_class_0::SimdReduceAdd            0      0.00%     56.62% # Class of committed instruction
system.cpu0.commit.op_class_0::SimdReduceAlu            0      0.00%     56.62% # Class of committed instruction
system.cpu0.commit.op_class_0::SimdReduceCmp            0      0.00%     56.62% # Class of committed instruction
system.cpu0.commit.op_class_0::SimdFloatReduceAdd            0      0.00%     56.62% # Class of committed instruction
system.cpu0.commit.op_class_0::SimdFloatReduceCmp            0      0.00%     56.62% # Class of committed instruction
system.cpu0.commit.op_class_0::SimdAes              0      0.00%     56.62% # Class of committed instruction
system.cpu0.commit.op_class_0::SimdAesMix            0      0.00%     56.62% # Class of committed instruction
system.cpu0.commit.op_class_0::SimdSha1Hash            0      0.00%     56.62% # Class of committed instruction
system.cpu0.commit.op_class_0::SimdSha1Hash2            0      0.00%     56.62% # Class of committed instruction
system.cpu0.commit.op_class_0::SimdSha256Hash            0      0.00%     56.62% # Class of committed instruction
system.cpu0.commit.op_class_0::SimdSha256Hash2            0      0.00%     56.62% # Class of committed instruction
system.cpu0.commit.op_class_0::SimdShaSigma2            0      0.00%     56.62% # Class of committed instruction
system.cpu0.commit.op_class_0::SimdShaSigma3            0      0.00%     56.62% # Class of committed instruction
system.cpu0.commit.op_class_0::SimdPredAlu            0      0.00%     56.62% # Class of committed instruction
system.cpu0.commit.op_class_0::MemRead      670787933     31.28%     87.90% # Class of committed instruction
system.cpu0.commit.op_class_0::MemWrite     259541433     12.10%    100.00% # Class of committed instruction
=======
final_tick                               2638988781500                       # Number of ticks from beginning of simulation (restored from checkpoints and never reset)
host_inst_rate                                  85517                       # Simulator instruction rate (inst/s)
host_mem_usage                                 702276                       # Number of bytes of host memory used
host_op_rate                                    85793                       # Simulator op (including micro ops) rate (op/s)
host_seconds                                 27538.66                       # Real time elapsed on the host
host_tick_rate                               95828495                       # Simulator tick rate (ticks/s)
sim_freq                                 1000000000000                       # Frequency of simulated ticks
sim_insts                                  2355011163                       # Number of instructions simulated
sim_ops                                    2362620070                       # Number of ops (including micro ops) simulated
sim_seconds                                  2.638989                       # Number of seconds simulated
sim_ticks                                2638988781500                       # Number of ticks simulated
system.cpu0.branchPred.BTBCorrect                   0                       # Number of correct BTB predictions (this stat may not work properly.
system.cpu0.branchPred.BTBHitPct            87.901329                       # BTB Hit Percentage
system.cpu0.branchPred.BTBHits              297847731                       # Number of BTB hits
system.cpu0.branchPred.BTBLookups           338843262                       # Number of BTB lookups
system.cpu0.branchPred.RASInCorrect                 0                       # Number of incorrect RAS predictions.
system.cpu0.branchPred.condIncorrect         26905705                       # Number of conditional branches incorrect
system.cpu0.branchPred.condPredicted        463524977                       # Number of conditional branches predicted
system.cpu0.branchPred.indirectHits          39899026                       # Number of indirect target hits.
system.cpu0.branchPred.indirectLookups       40470146                       # Number of indirect predictor lookups.
system.cpu0.branchPred.indirectMisses          571120                       # Number of indirect misses.
system.cpu0.branchPred.lookups              589651466                       # Number of BP lookups
system.cpu0.branchPred.usedRAS                      0                       # Number of times the RAS was used to get a target.
system.cpu0.branchPredindirectMispredicted      3959615                       # Number of mispredicted indirect branches.
system.cpu0.commit.amos                       3801865                       # Number of atomic instructions committed
system.cpu0.commit.branchMispredicts         17459704                       # The number of times a branch was mispredicted
system.cpu0.commit.branches                 555058235                       # Number of branches committed
system.cpu0.commit.bw_lim_events             57389003                       # number cycles where commit BW limit reached
system.cpu0.commit.commitNonSpecStalls       11419480                       # The number of times commit has been forced to stall to communicate backwards
system.cpu0.commit.commitSquashedInsts       94807458                       # The number of squashed insts skipped by commit
system.cpu0.commit.committedInsts          2224934699                       # Number of instructions committed
system.cpu0.commit.committedOps            2228741846                       # Number of ops (including micro ops) committed
system.cpu0.commit.committed_per_cycle::samples   3805650526                       # Number of insts commited each cycle
system.cpu0.commit.committed_per_cycle::mean     0.585640                       # Number of insts commited each cycle
system.cpu0.commit.committed_per_cycle::stdev     1.349035                       # Number of insts commited each cycle
system.cpu0.commit.committed_per_cycle::underflows            0      0.00%      0.00% # Number of insts commited each cycle
system.cpu0.commit.committed_per_cycle::0   2734955168     71.87%     71.87% # Number of insts commited each cycle
system.cpu0.commit.committed_per_cycle::1    635514683     16.70%     88.56% # Number of insts commited each cycle
system.cpu0.commit.committed_per_cycle::2    149580015      3.93%     92.50% # Number of insts commited each cycle
system.cpu0.commit.committed_per_cycle::3    145288751      3.82%     96.31% # Number of insts commited each cycle
system.cpu0.commit.committed_per_cycle::4     46244718      1.22%     97.53% # Number of insts commited each cycle
system.cpu0.commit.committed_per_cycle::5     16968150      0.45%     97.97% # Number of insts commited each cycle
system.cpu0.commit.committed_per_cycle::6      8701032      0.23%     98.20% # Number of insts commited each cycle
system.cpu0.commit.committed_per_cycle::7     11009006      0.29%     98.49% # Number of insts commited each cycle
system.cpu0.commit.committed_per_cycle::8     57389003      1.51%    100.00% # Number of insts commited each cycle
system.cpu0.commit.committed_per_cycle::overflows            0      0.00%    100.00% # Number of insts commited each cycle
system.cpu0.commit.committed_per_cycle::min_value            0                       # Number of insts commited each cycle
system.cpu0.commit.committed_per_cycle::max_value            8                       # Number of insts commited each cycle
system.cpu0.commit.committed_per_cycle::total   3805650526                       # Number of insts commited each cycle
system.cpu0.commit.fp_insts                        50                       # Number of committed floating point instructions.
system.cpu0.commit.function_calls            44167704                       # Number of function calls committed.
system.cpu0.commit.int_insts               2151034791                       # Number of committed integer instructions.
system.cpu0.commit.loads                    691563808                       # Number of loads committed
system.cpu0.commit.membars                    7608881                       # Number of memory barriers committed
system.cpu0.commit.op_class_0::No_OpClass      7608887      0.34%      0.34% # Class of committed instruction
system.cpu0.commit.op_class_0::IntAlu      1238874617     55.59%     55.93% # Class of committed instruction
system.cpu0.commit.op_class_0::IntMult       18318071      0.82%     56.75% # Class of committed instruction
system.cpu0.commit.op_class_0::IntDiv         3801411      0.17%     56.92% # Class of committed instruction
system.cpu0.commit.op_class_0::FloatAdd             0      0.00%     56.92% # Class of committed instruction
system.cpu0.commit.op_class_0::FloatCmp             4      0.00%     56.92% # Class of committed instruction
system.cpu0.commit.op_class_0::FloatCvt            12      0.00%     56.92% # Class of committed instruction
system.cpu0.commit.op_class_0::FloatMult            0      0.00%     56.92% # Class of committed instruction
system.cpu0.commit.op_class_0::FloatMultAcc            0      0.00%     56.92% # Class of committed instruction
system.cpu0.commit.op_class_0::FloatDiv             2      0.00%     56.92% # Class of committed instruction
system.cpu0.commit.op_class_0::FloatMisc            4      0.00%     56.92% # Class of committed instruction
system.cpu0.commit.op_class_0::FloatSqrt            0      0.00%     56.92% # Class of committed instruction
system.cpu0.commit.op_class_0::SimdAdd              0      0.00%     56.92% # Class of committed instruction
system.cpu0.commit.op_class_0::SimdAddAcc            0      0.00%     56.92% # Class of committed instruction
system.cpu0.commit.op_class_0::SimdAlu              0      0.00%     56.92% # Class of committed instruction
system.cpu0.commit.op_class_0::SimdCmp              0      0.00%     56.92% # Class of committed instruction
system.cpu0.commit.op_class_0::SimdCvt              0      0.00%     56.92% # Class of committed instruction
system.cpu0.commit.op_class_0::SimdMisc             0      0.00%     56.92% # Class of committed instruction
system.cpu0.commit.op_class_0::SimdMult             0      0.00%     56.92% # Class of committed instruction
system.cpu0.commit.op_class_0::SimdMultAcc            0      0.00%     56.92% # Class of committed instruction
system.cpu0.commit.op_class_0::SimdShift            0      0.00%     56.92% # Class of committed instruction
system.cpu0.commit.op_class_0::SimdShiftAcc            0      0.00%     56.92% # Class of committed instruction
system.cpu0.commit.op_class_0::SimdDiv              0      0.00%     56.92% # Class of committed instruction
system.cpu0.commit.op_class_0::SimdSqrt             0      0.00%     56.92% # Class of committed instruction
system.cpu0.commit.op_class_0::SimdFloatAdd            0      0.00%     56.92% # Class of committed instruction
system.cpu0.commit.op_class_0::SimdFloatAlu            0      0.00%     56.92% # Class of committed instruction
system.cpu0.commit.op_class_0::SimdFloatCmp            0      0.00%     56.92% # Class of committed instruction
system.cpu0.commit.op_class_0::SimdFloatCvt            0      0.00%     56.92% # Class of committed instruction
system.cpu0.commit.op_class_0::SimdFloatDiv            0      0.00%     56.92% # Class of committed instruction
system.cpu0.commit.op_class_0::SimdFloatMisc            0      0.00%     56.92% # Class of committed instruction
system.cpu0.commit.op_class_0::SimdFloatMult            0      0.00%     56.92% # Class of committed instruction
system.cpu0.commit.op_class_0::SimdFloatMultAcc            0      0.00%     56.92% # Class of committed instruction
system.cpu0.commit.op_class_0::SimdFloatSqrt            0      0.00%     56.92% # Class of committed instruction
system.cpu0.commit.op_class_0::SimdReduceAdd            0      0.00%     56.92% # Class of committed instruction
system.cpu0.commit.op_class_0::SimdReduceAlu            0      0.00%     56.92% # Class of committed instruction
system.cpu0.commit.op_class_0::SimdReduceCmp            0      0.00%     56.92% # Class of committed instruction
system.cpu0.commit.op_class_0::SimdFloatReduceAdd            0      0.00%     56.92% # Class of committed instruction
system.cpu0.commit.op_class_0::SimdFloatReduceCmp            0      0.00%     56.92% # Class of committed instruction
system.cpu0.commit.op_class_0::SimdAes              0      0.00%     56.92% # Class of committed instruction
system.cpu0.commit.op_class_0::SimdAesMix            0      0.00%     56.92% # Class of committed instruction
system.cpu0.commit.op_class_0::SimdSha1Hash            0      0.00%     56.92% # Class of committed instruction
system.cpu0.commit.op_class_0::SimdSha1Hash2            0      0.00%     56.92% # Class of committed instruction
system.cpu0.commit.op_class_0::SimdSha256Hash            0      0.00%     56.92% # Class of committed instruction
system.cpu0.commit.op_class_0::SimdSha256Hash2            0      0.00%     56.92% # Class of committed instruction
system.cpu0.commit.op_class_0::SimdShaSigma2            0      0.00%     56.92% # Class of committed instruction
system.cpu0.commit.op_class_0::SimdShaSigma3            0      0.00%     56.92% # Class of committed instruction
system.cpu0.commit.op_class_0::SimdPredAlu            0      0.00%     56.92% # Class of committed instruction
system.cpu0.commit.op_class_0::MemRead      695365665     31.20%     88.12% # Class of committed instruction
system.cpu0.commit.op_class_0::MemWrite     264773145     11.88%    100.00% # Class of committed instruction
>>>>>>> 6be7a0502e78ebf80a09b838e3e9c0d652379c93
system.cpu0.commit.op_class_0::FloatMemRead            8      0.00%    100.00% # Class of committed instruction
system.cpu0.commit.op_class_0::FloatMemWrite           20      0.00%    100.00% # Class of committed instruction
system.cpu0.commit.op_class_0::IprAccess            0      0.00%    100.00% # Class of committed instruction
system.cpu0.commit.op_class_0::InstPrefetch            0      0.00%    100.00% # Class of committed instruction
<<<<<<< HEAD
system.cpu0.commit.op_class_0::total       2144392586                       # Class of committed instruction
system.cpu0.commit.refs                     930329394                       # Number of memory references committed
system.cpu0.commit.swp_count                        0                       # Number of s/w prefetches committed
system.cpu0.commit.vec_insts                        0                       # Number of committed Vector instructions.
system.cpu0.committedInsts                 2142486050                       # Number of Instructions Simulated
system.cpu0.committedOps                   2144392586                       # Number of Ops (including micro ops) Simulated
system.cpu0.cpi                              1.845252                       # CPI: Cycles Per Instruction
system.cpu0.cpi_total                        1.845252                       # CPI: Total CPI of All Threads
system.cpu0.decode.BlockedCycles            468921551                       # Number of cycles decode is blocked
system.cpu0.decode.BranchMispred             13743314                       # Number of times decode detected a branch misprediction
system.cpu0.decode.BranchResolved           289996254                       # Number of times decode resolved a branch
system.cpu0.decode.DecodedInsts            2361249621                       # Number of instructions handled by decode
system.cpu0.decode.IdleCycles              1388820074                       # Number of cycles decode is idle
system.cpu0.decode.RunCycles               1641861437                       # Number of cycles decode is running
system.cpu0.decode.SquashCycles              16968952                       # Number of cycles decode is squashing
system.cpu0.decode.SquashedInsts             23191838                       # Number of squashed instructions handled by decode
system.cpu0.decode.UnblockCycles              8662433                       # Number of cycles decode is unblocking
=======
system.cpu0.commit.op_class_0::total       2228741846                       # Class of committed instruction
system.cpu0.commit.refs                     960138838                       # Number of memory references committed
system.cpu0.commit.swp_count                        0                       # Number of s/w prefetches committed
system.cpu0.commit.vec_insts                        0                       # Number of committed Vector instructions.
system.cpu0.committedInsts                 2224934699                       # Number of Instructions Simulated
system.cpu0.committedOps                   2228741846                       # Number of Ops (including micro ops) Simulated
system.cpu0.cpi                              2.367229                       # CPI: Cycles Per Instruction
system.cpu0.cpi_total                        2.367229                       # CPI: Total CPI of All Threads
system.cpu0.decode.BlockedCycles            725032434                       # Number of cycles decode is blocked
system.cpu0.decode.BranchMispred              9458935                       # Number of times decode detected a branch misprediction
system.cpu0.decode.BranchResolved           294880621                       # Number of times decode resolved a branch
system.cpu0.decode.DecodedInsts            2360387004                       # Number of instructions handled by decode
system.cpu0.decode.IdleCycles              1467689772                       # Number of cycles decode is idle
system.cpu0.decode.RunCycles               1610091327                       # Number of cycles decode is running
system.cpu0.decode.SquashCycles              17473227                       # Number of cycles decode is squashing
system.cpu0.decode.SquashedInsts             23591238                       # Number of squashed instructions handled by decode
system.cpu0.decode.UnblockCycles             10747681                       # Number of cycles decode is unblocking
>>>>>>> 6be7a0502e78ebf80a09b838e3e9c0d652379c93
system.cpu0.dtb.accesses                            0                       # DTB accesses
system.cpu0.dtb.hits                                0                       # DTB hits
system.cpu0.dtb.misses                              0                       # DTB misses
system.cpu0.dtb.read_accesses                       0                       # DTB read accesses
system.cpu0.dtb.read_hits                           0                       # DTB read hits
system.cpu0.dtb.read_misses                         0                       # DTB read misses
system.cpu0.dtb.write_accesses                      0                       # DTB write accesses
system.cpu0.dtb.write_hits                          0                       # DTB write hits
system.cpu0.dtb.write_misses                        0                       # DTB write misses
<<<<<<< HEAD
system.cpu0.fetch.Branches                  588032499                       # Number of branches that fetch encountered
system.cpu0.fetch.CacheLines                397910103                       # Number of cache lines fetched
system.cpu0.fetch.Cycles                   2133040337                       # Number of cycles fetch has run and was not squashing or blocked
system.cpu0.fetch.IcacheSquashes             12120365                       # Number of outstanding Icache misses that were squashed
system.cpu0.fetch.IcacheWaitRetryStallCycles           94                       # Number of stall cycles due to full MSHR
system.cpu0.fetch.Insts                    2413271504                       # Number of instructions fetch has processed
system.cpu0.fetch.MiscStallCycles                  33                       # Number of cycles fetch has spent waiting on interrupts, or bad addresses, or out of MSHRs
system.cpu0.fetch.PendingTrapStallCycles          156                       # Number of stall cycles due to pending traps
system.cpu0.fetch.SquashCycles               61412810                       # Number of cycles fetch has spent squashing
system.cpu0.fetch.branchRate                 0.148740                       # Number of branch fetches per cycle
system.cpu0.fetch.icacheStallCycles        1361487422                       # Number of cycles fetch is stalled on an Icache miss
system.cpu0.fetch.predictedBranches         339964343                       # Number of branches that fetch has predicted taken
system.cpu0.fetch.rate                       0.610425                       # Number of inst fetches per cycle
system.cpu0.fetch.rateDist::samples        3525234447                       # Number of instructions fetched each cycle (Total)
system.cpu0.fetch.rateDist::mean             0.685111                       # Number of instructions fetched each cycle (Total)
system.cpu0.fetch.rateDist::stdev            0.912847                       # Number of instructions fetched each cycle (Total)
system.cpu0.fetch.rateDist::underflows              0      0.00%      0.00% # Number of instructions fetched each cycle (Total)
system.cpu0.fetch.rateDist::0              1817347571     51.55%     51.55% # Number of instructions fetched each cycle (Total)
system.cpu0.fetch.rateDist::1              1271655133     36.07%     87.63% # Number of instructions fetched each cycle (Total)
system.cpu0.fetch.rateDist::2               229838974      6.52%     94.15% # Number of instructions fetched each cycle (Total)
system.cpu0.fetch.rateDist::3               163784364      4.65%     98.79% # Number of instructions fetched each cycle (Total)
system.cpu0.fetch.rateDist::4                32560260      0.92%     99.71% # Number of instructions fetched each cycle (Total)
system.cpu0.fetch.rateDist::5                 5655259      0.16%     99.88% # Number of instructions fetched each cycle (Total)
system.cpu0.fetch.rateDist::6                  583775      0.02%     99.89% # Number of instructions fetched each cycle (Total)
system.cpu0.fetch.rateDist::7                     492      0.00%     99.89% # Number of instructions fetched each cycle (Total)
system.cpu0.fetch.rateDist::8                 3808619      0.11%    100.00% # Number of instructions fetched each cycle (Total)
system.cpu0.fetch.rateDist::overflows               0      0.00%    100.00% # Number of instructions fetched each cycle (Total)
system.cpu0.fetch.rateDist::min_value               0                       # Number of instructions fetched each cycle (Total)
system.cpu0.fetch.rateDist::max_value               8                       # Number of instructions fetched each cycle (Total)
system.cpu0.fetch.rateDist::total          3525234447                       # Number of instructions fetched each cycle (Total)
system.cpu0.fp_regfile_reads                       44                       # number of floating regfile reads
system.cpu0.fp_regfile_writes                      24                       # number of floating regfile writes
system.cpu0.idleCycles                      428192141                       # Total number of cycles that the CPU has spent unscheduled due to idling
system.cpu0.iew.branchMispredicts            18386725                       # Number of branch mispredicts detected at execute
system.cpu0.iew.exec_branches               554382573                       # Number of branches executed
system.cpu0.iew.exec_nop                            0                       # number of nop insts executed
system.cpu0.iew.exec_rate                    0.584267                       # Inst execution rate
system.cpu0.iew.exec_refs                  1043573461                       # number of memory reference insts executed
system.cpu0.iew.exec_stores                 278109457                       # Number of stores executed
system.cpu0.iew.exec_swp                            0                       # number of swp insts executed
system.cpu0.iew.iewBlockCycles              347819875                       # Number of cycles IEW is blocking
system.cpu0.iew.iewDispLoadInsts            762784142                       # Number of dispatched load instructions
system.cpu0.iew.iewDispNonSpecInsts           1910622                       # Number of dispatched non-speculative instructions
system.cpu0.iew.iewDispSquashedInsts          8540185                       # Number of squashed instructions skipped by dispatch
system.cpu0.iew.iewDispStoreInsts           280237118                       # Number of dispatched store instructions
system.cpu0.iew.iewDispatchedInsts         2323663241                       # Number of instructions dispatched to IQ
system.cpu0.iew.iewExecLoadInsts            765464004                       # Number of load instructions executed
system.cpu0.iew.iewExecSquashedInsts         13920828                       # Number of squashed instructions skipped in execute
system.cpu0.iew.iewExecutedInsts           2309858371                       # Number of executed instructions
system.cpu0.iew.iewIQFullEvents               1968901                       # Number of times the IQ has become full, causing a stall
system.cpu0.iew.iewIdleCycles                       0                       # Number of cycles IEW is idle
system.cpu0.iew.iewLSQFullEvents             11206416                       # Number of times the LSQ has become full, causing a stall
system.cpu0.iew.iewSquashCycles              16968952                       # Number of cycles IEW is squashing
system.cpu0.iew.iewUnblockCycles             15353705                       # Number of cycles IEW is unblocking
system.cpu0.iew.lsq.thread0.blockedLoads            0                       # Number of blocked loads due to partial load-store forwarding
system.cpu0.iew.lsq.thread0.cacheBlocked       272618                       # Number of times an access to memory failed due to the cache being blocked
system.cpu0.iew.lsq.thread0.forwLoads        36550231                       # Number of loads that had data forwarded from stores
system.cpu0.iew.lsq.thread0.ignoredResponses       158498                       # Number of memory responses ignored because the instruction is squashed
system.cpu0.iew.lsq.thread0.invAddrLoads            0                       # Number of loads ignored due to an invalid address
system.cpu0.iew.lsq.thread0.invAddrSwpfs            0                       # Number of software prefetches ignored due to an invalid address
system.cpu0.iew.lsq.thread0.memOrderViolation        16429                       # Number of memory ordering violations
system.cpu0.iew.lsq.thread0.rescheduledLoads     11743508                       # Number of loads that were rescheduled
system.cpu0.iew.lsq.thread0.squashedLoads     93897449                       # Number of loads squashed
system.cpu0.iew.lsq.thread0.squashedStores     18794417                       # Number of stores squashed
system.cpu0.iew.memOrderViolationEvents         16429                       # Number of memory order violations
system.cpu0.iew.predictedNotTakenIncorrect      1910271                       # Number of branches that were predicted not taken incorrectly
system.cpu0.iew.predictedTakenIncorrect      16476454                       # Number of branches that were predicted taken incorrectly
system.cpu0.iew.wb_consumers               1015235786                       # num instructions consuming a value
system.cpu0.iew.wb_count                   2283528205                       # cumulative count of insts written-back
system.cpu0.iew.wb_fanout                    0.838463                       # average fanout of values written-back
system.cpu0.iew.wb_producers                851237905                       # num instructions producing a value
system.cpu0.iew.wb_rate                      0.577607                       # insts written-back per cycle
system.cpu0.iew.wb_sent                    2283838475                       # cumulative count of insts sent to commit
system.cpu0.int_regfile_reads              2810282446                       # number of integer regfile reads
system.cpu0.int_regfile_writes             1471378942                       # number of integer regfile writes
system.cpu0.ipc                              0.541931                       # IPC: Instructions Per Cycle
system.cpu0.ipc_total                        0.541931                       # IPC: Total IPC of All Threads
system.cpu0.iq.FU_type_0::No_OpClass          3810719      0.16%      0.16% # Type of FU issued
system.cpu0.iq.FU_type_0::IntAlu           1249321370     53.76%     53.93% # Type of FU issued
system.cpu0.iq.FU_type_0::IntMult            18649428      0.80%     54.73% # Type of FU issued
system.cpu0.iq.FU_type_0::IntDiv              3802466      0.16%     54.89% # Type of FU issued
system.cpu0.iq.FU_type_0::FloatAdd                  0      0.00%     54.89% # Type of FU issued
system.cpu0.iq.FU_type_0::FloatCmp                  4      0.00%     54.89% # Type of FU issued
system.cpu0.iq.FU_type_0::FloatCvt                 12      0.00%     54.89% # Type of FU issued
system.cpu0.iq.FU_type_0::FloatMult                 0      0.00%     54.89% # Type of FU issued
system.cpu0.iq.FU_type_0::FloatMultAcc              0      0.00%     54.89% # Type of FU issued
system.cpu0.iq.FU_type_0::FloatDiv                  2      0.00%     54.89% # Type of FU issued
system.cpu0.iq.FU_type_0::FloatMisc                 4      0.00%     54.89% # Type of FU issued
system.cpu0.iq.FU_type_0::FloatSqrt                 0      0.00%     54.89% # Type of FU issued
system.cpu0.iq.FU_type_0::SimdAdd                   0      0.00%     54.89% # Type of FU issued
system.cpu0.iq.FU_type_0::SimdAddAcc                0      0.00%     54.89% # Type of FU issued
system.cpu0.iq.FU_type_0::SimdAlu                   0      0.00%     54.89% # Type of FU issued
system.cpu0.iq.FU_type_0::SimdCmp                   0      0.00%     54.89% # Type of FU issued
system.cpu0.iq.FU_type_0::SimdCvt                   0      0.00%     54.89% # Type of FU issued
system.cpu0.iq.FU_type_0::SimdMisc                  0      0.00%     54.89% # Type of FU issued
system.cpu0.iq.FU_type_0::SimdMult                  0      0.00%     54.89% # Type of FU issued
system.cpu0.iq.FU_type_0::SimdMultAcc               0      0.00%     54.89% # Type of FU issued
system.cpu0.iq.FU_type_0::SimdShift                 0      0.00%     54.89% # Type of FU issued
system.cpu0.iq.FU_type_0::SimdShiftAcc              0      0.00%     54.89% # Type of FU issued
system.cpu0.iq.FU_type_0::SimdDiv                   0      0.00%     54.89% # Type of FU issued
system.cpu0.iq.FU_type_0::SimdSqrt                  0      0.00%     54.89% # Type of FU issued
system.cpu0.iq.FU_type_0::SimdFloatAdd              0      0.00%     54.89% # Type of FU issued
system.cpu0.iq.FU_type_0::SimdFloatAlu              0      0.00%     54.89% # Type of FU issued
system.cpu0.iq.FU_type_0::SimdFloatCmp              0      0.00%     54.89% # Type of FU issued
system.cpu0.iq.FU_type_0::SimdFloatCvt              0      0.00%     54.89% # Type of FU issued
system.cpu0.iq.FU_type_0::SimdFloatDiv              0      0.00%     54.89% # Type of FU issued
system.cpu0.iq.FU_type_0::SimdFloatMisc             0      0.00%     54.89% # Type of FU issued
system.cpu0.iq.FU_type_0::SimdFloatMult             0      0.00%     54.89% # Type of FU issued
system.cpu0.iq.FU_type_0::SimdFloatMultAcc            0      0.00%     54.89% # Type of FU issued
system.cpu0.iq.FU_type_0::SimdFloatSqrt             0      0.00%     54.89% # Type of FU issued
system.cpu0.iq.FU_type_0::SimdReduceAdd             0      0.00%     54.89% # Type of FU issued
system.cpu0.iq.FU_type_0::SimdReduceAlu             0      0.00%     54.89% # Type of FU issued
system.cpu0.iq.FU_type_0::SimdReduceCmp             0      0.00%     54.89% # Type of FU issued
system.cpu0.iq.FU_type_0::SimdFloatReduceAdd            0      0.00%     54.89% # Type of FU issued
system.cpu0.iq.FU_type_0::SimdFloatReduceCmp            0      0.00%     54.89% # Type of FU issued
system.cpu0.iq.FU_type_0::SimdAes                   0      0.00%     54.89% # Type of FU issued
system.cpu0.iq.FU_type_0::SimdAesMix                0      0.00%     54.89% # Type of FU issued
system.cpu0.iq.FU_type_0::SimdSha1Hash              0      0.00%     54.89% # Type of FU issued
system.cpu0.iq.FU_type_0::SimdSha1Hash2             0      0.00%     54.89% # Type of FU issued
system.cpu0.iq.FU_type_0::SimdSha256Hash            0      0.00%     54.89% # Type of FU issued
system.cpu0.iq.FU_type_0::SimdSha256Hash2            0      0.00%     54.89% # Type of FU issued
system.cpu0.iq.FU_type_0::SimdShaSigma2             0      0.00%     54.89% # Type of FU issued
system.cpu0.iq.FU_type_0::SimdShaSigma3             0      0.00%     54.89% # Type of FU issued
system.cpu0.iq.FU_type_0::SimdPredAlu               0      0.00%     54.89% # Type of FU issued
system.cpu0.iq.FU_type_0::MemRead           771457876     33.20%     88.09% # Type of FU issued
system.cpu0.iq.FU_type_0::MemWrite          276737288     11.91%    100.00% # Type of FU issued
system.cpu0.iq.FU_type_0::FloatMemRead             10      0.00%    100.00% # Type of FU issued
system.cpu0.iq.FU_type_0::FloatMemWrite            20      0.00%    100.00% # Type of FU issued
system.cpu0.iq.FU_type_0::IprAccess                 0      0.00%    100.00% # Type of FU issued
system.cpu0.iq.FU_type_0::InstPrefetch              0      0.00%    100.00% # Type of FU issued
system.cpu0.iq.FU_type_0::total            2323779199                       # Type of FU issued
system.cpu0.iq.fp_alu_accesses                     56                       # Number of floating point alu accesses
system.cpu0.iq.fp_inst_queue_reads                108                       # Number of floating instruction queue reads
system.cpu0.iq.fp_inst_queue_wakeup_accesses           52                       # Number of floating instruction queue wakeup accesses
system.cpu0.iq.fp_inst_queue_writes                76                       # Number of floating instruction queue writes
system.cpu0.iq.fu_busy_cnt                    3099816                       # FU busy when requested
system.cpu0.iq.fu_busy_rate                  0.001334                       # FU busy rate (busy events/executed inst)
system.cpu0.iq.fu_full::No_OpClass                  0      0.00%      0.00% # attempts to use FU when none available
system.cpu0.iq.fu_full::IntAlu                 592543     19.12%     19.12% # attempts to use FU when none available
system.cpu0.iq.fu_full::IntMult                     4      0.00%     19.12% # attempts to use FU when none available
system.cpu0.iq.fu_full::IntDiv                      0      0.00%     19.12% # attempts to use FU when none available
system.cpu0.iq.fu_full::FloatAdd                    0      0.00%     19.12% # attempts to use FU when none available
system.cpu0.iq.fu_full::FloatCmp                    0      0.00%     19.12% # attempts to use FU when none available
system.cpu0.iq.fu_full::FloatCvt                    0      0.00%     19.12% # attempts to use FU when none available
system.cpu0.iq.fu_full::FloatMult                   0      0.00%     19.12% # attempts to use FU when none available
system.cpu0.iq.fu_full::FloatMultAcc                0      0.00%     19.12% # attempts to use FU when none available
system.cpu0.iq.fu_full::FloatDiv                    0      0.00%     19.12% # attempts to use FU when none available
system.cpu0.iq.fu_full::FloatMisc                   0      0.00%     19.12% # attempts to use FU when none available
system.cpu0.iq.fu_full::FloatSqrt                   0      0.00%     19.12% # attempts to use FU when none available
system.cpu0.iq.fu_full::SimdAdd                     0      0.00%     19.12% # attempts to use FU when none available
system.cpu0.iq.fu_full::SimdAddAcc                  0      0.00%     19.12% # attempts to use FU when none available
system.cpu0.iq.fu_full::SimdAlu                     0      0.00%     19.12% # attempts to use FU when none available
system.cpu0.iq.fu_full::SimdCmp                     0      0.00%     19.12% # attempts to use FU when none available
system.cpu0.iq.fu_full::SimdCvt                     0      0.00%     19.12% # attempts to use FU when none available
system.cpu0.iq.fu_full::SimdMisc                    0      0.00%     19.12% # attempts to use FU when none available
system.cpu0.iq.fu_full::SimdMult                    0      0.00%     19.12% # attempts to use FU when none available
system.cpu0.iq.fu_full::SimdMultAcc                 0      0.00%     19.12% # attempts to use FU when none available
system.cpu0.iq.fu_full::SimdShift                   0      0.00%     19.12% # attempts to use FU when none available
system.cpu0.iq.fu_full::SimdShiftAcc                0      0.00%     19.12% # attempts to use FU when none available
system.cpu0.iq.fu_full::SimdDiv                     0      0.00%     19.12% # attempts to use FU when none available
system.cpu0.iq.fu_full::SimdSqrt                    0      0.00%     19.12% # attempts to use FU when none available
system.cpu0.iq.fu_full::SimdFloatAdd                0      0.00%     19.12% # attempts to use FU when none available
system.cpu0.iq.fu_full::SimdFloatAlu                0      0.00%     19.12% # attempts to use FU when none available
system.cpu0.iq.fu_full::SimdFloatCmp                0      0.00%     19.12% # attempts to use FU when none available
system.cpu0.iq.fu_full::SimdFloatCvt                0      0.00%     19.12% # attempts to use FU when none available
system.cpu0.iq.fu_full::SimdFloatDiv                0      0.00%     19.12% # attempts to use FU when none available
system.cpu0.iq.fu_full::SimdFloatMisc               0      0.00%     19.12% # attempts to use FU when none available
system.cpu0.iq.fu_full::SimdFloatMult               0      0.00%     19.12% # attempts to use FU when none available
system.cpu0.iq.fu_full::SimdFloatMultAcc            0      0.00%     19.12% # attempts to use FU when none available
system.cpu0.iq.fu_full::SimdFloatSqrt               0      0.00%     19.12% # attempts to use FU when none available
system.cpu0.iq.fu_full::SimdReduceAdd               0      0.00%     19.12% # attempts to use FU when none available
system.cpu0.iq.fu_full::SimdReduceAlu               0      0.00%     19.12% # attempts to use FU when none available
system.cpu0.iq.fu_full::SimdReduceCmp               0      0.00%     19.12% # attempts to use FU when none available
system.cpu0.iq.fu_full::SimdFloatReduceAdd            0      0.00%     19.12% # attempts to use FU when none available
system.cpu0.iq.fu_full::SimdFloatReduceCmp            0      0.00%     19.12% # attempts to use FU when none available
system.cpu0.iq.fu_full::SimdAes                     0      0.00%     19.12% # attempts to use FU when none available
system.cpu0.iq.fu_full::SimdAesMix                  0      0.00%     19.12% # attempts to use FU when none available
system.cpu0.iq.fu_full::SimdSha1Hash                0      0.00%     19.12% # attempts to use FU when none available
system.cpu0.iq.fu_full::SimdSha1Hash2               0      0.00%     19.12% # attempts to use FU when none available
system.cpu0.iq.fu_full::SimdSha256Hash              0      0.00%     19.12% # attempts to use FU when none available
system.cpu0.iq.fu_full::SimdSha256Hash2             0      0.00%     19.12% # attempts to use FU when none available
system.cpu0.iq.fu_full::SimdShaSigma2               0      0.00%     19.12% # attempts to use FU when none available
system.cpu0.iq.fu_full::SimdShaSigma3               0      0.00%     19.12% # attempts to use FU when none available
system.cpu0.iq.fu_full::SimdPredAlu                 0      0.00%     19.12% # attempts to use FU when none available
system.cpu0.iq.fu_full::MemRead               1976088     63.75%     82.86% # attempts to use FU when none available
system.cpu0.iq.fu_full::MemWrite               531177     17.14%    100.00% # attempts to use FU when none available
=======
system.cpu0.fetch.Branches                  589651466                       # Number of branches that fetch encountered
system.cpu0.fetch.CacheLines                401429259                       # Number of cache lines fetched
system.cpu0.fetch.Cycles                   2365823977                       # Number of cycles fetch has run and was not squashing or blocked
system.cpu0.fetch.IcacheSquashes             11593206                       # Number of outstanding Icache misses that were squashed
system.cpu0.fetch.IcacheWaitRetryStallCycles          105                       # Number of stall cycles due to full MSHR
system.cpu0.fetch.Insts                    2401691042                       # Number of instructions fetch has processed
system.cpu0.fetch.MiscStallCycles                  24                       # Number of cycles fetch has spent waiting on interrupts, or bad addresses, or out of MSHRs
system.cpu0.fetch.PendingTrapStallCycles           91                       # Number of stall cycles due to pending traps
system.cpu0.fetch.SquashCycles               53838486                       # Number of cycles fetch has spent squashing
system.cpu0.fetch.branchRate                 0.111954                       # Number of branch fetches per cycle
system.cpu0.fetch.icacheStallCycles        1438291001                       # Number of cycles fetch is stalled on an Icache miss
system.cpu0.fetch.predictedBranches         337746757                       # Number of branches that fetch has predicted taken
system.cpu0.fetch.rate                       0.455994                       # Number of inst fetches per cycle
system.cpu0.fetch.rateDist::samples        3831034441                       # Number of instructions fetched each cycle (Total)
system.cpu0.fetch.rateDist::mean             0.627898                       # Number of instructions fetched each cycle (Total)
system.cpu0.fetch.rateDist::stdev            0.903834                       # Number of instructions fetched each cycle (Total)
system.cpu0.fetch.rateDist::underflows              0      0.00%      0.00% # Number of instructions fetched each cycle (Total)
system.cpu0.fetch.rateDist::0              2148979391     56.09%     56.09% # Number of instructions fetched each cycle (Total)
system.cpu0.fetch.rateDist::1              1238002267     32.32%     88.41% # Number of instructions fetched each cycle (Total)
system.cpu0.fetch.rateDist::2               231615522      6.05%     94.45% # Number of instructions fetched each cycle (Total)
system.cpu0.fetch.rateDist::3               169015868      4.41%     98.87% # Number of instructions fetched each cycle (Total)
system.cpu0.fetch.rateDist::4                32417449      0.85%     99.71% # Number of instructions fetched each cycle (Total)
system.cpu0.fetch.rateDist::5                 6090375      0.16%     99.87% # Number of instructions fetched each cycle (Total)
system.cpu0.fetch.rateDist::6                 1106072      0.03%     99.90% # Number of instructions fetched each cycle (Total)
system.cpu0.fetch.rateDist::7                     421      0.00%     99.90% # Number of instructions fetched each cycle (Total)
system.cpu0.fetch.rateDist::8                 3807076      0.10%    100.00% # Number of instructions fetched each cycle (Total)
system.cpu0.fetch.rateDist::overflows               0      0.00%    100.00% # Number of instructions fetched each cycle (Total)
system.cpu0.fetch.rateDist::min_value               0                       # Number of instructions fetched each cycle (Total)
system.cpu0.fetch.rateDist::max_value               8                       # Number of instructions fetched each cycle (Total)
system.cpu0.fetch.rateDist::total          3831034441                       # Number of instructions fetched each cycle (Total)
system.cpu0.fp_regfile_reads                       44                       # number of floating regfile reads
system.cpu0.fp_regfile_writes                      23                       # number of floating regfile writes
system.cpu0.idleCycles                     1435896296                       # Total number of cycles that the CPU has spent unscheduled due to idling
system.cpu0.iew.branchMispredicts            17716632                       # Number of branch mispredicts detected at execute
system.cpu0.iew.exec_branches               567456314                       # Number of branches executed
system.cpu0.iew.exec_nop                            0                       # number of nop insts executed
system.cpu0.iew.exec_rate                    0.438561                       # Inst execution rate
system.cpu0.iew.exec_refs                  1008153770                       # number of memory reference insts executed
system.cpu0.iew.exec_stores                 276166684                       # Number of stores executed
system.cpu0.iew.exec_swp                            0                       # number of swp insts executed
system.cpu0.iew.iewBlockCycles              587953153                       # Number of cycles IEW is blocking
system.cpu0.iew.iewDispLoadInsts            729442071                       # Number of dispatched load instructions
system.cpu0.iew.iewDispNonSpecInsts           3810826                       # Number of dispatched non-speculative instructions
system.cpu0.iew.iewDispSquashedInsts          9379673                       # Number of squashed instructions skipped by dispatch
system.cpu0.iew.iewDispStoreInsts           277981151                       # Number of dispatched store instructions
system.cpu0.iew.iewDispatchedInsts         2323493208                       # Number of instructions dispatched to IQ
system.cpu0.iew.iewExecLoadInsts            731987086                       # Number of load instructions executed
system.cpu0.iew.iewExecSquashedInsts         10214694                       # Number of squashed instructions skipped in execute
system.cpu0.iew.iewExecutedInsts           2309872658                       # Number of executed instructions
system.cpu0.iew.iewIQFullEvents               2977727                       # Number of times the IQ has become full, causing a stall
system.cpu0.iew.iewIdleCycles                       0                       # Number of cycles IEW is idle
system.cpu0.iew.iewLSQFullEvents              8428395                       # Number of times the LSQ has become full, causing a stall
system.cpu0.iew.iewSquashCycles              17473227                       # Number of cycles IEW is squashing
system.cpu0.iew.iewUnblockCycles             15849723                       # Number of cycles IEW is unblocking
system.cpu0.iew.lsq.thread0.blockedLoads            0                       # Number of blocked loads due to partial load-store forwarding
system.cpu0.iew.lsq.thread0.cacheBlocked       338846                       # Number of times an access to memory failed due to the cache being blocked
system.cpu0.iew.lsq.thread0.forwLoads        38078092                       # Number of loads that had data forwarded from stores
system.cpu0.iew.lsq.thread0.ignoredResponses       144154                       # Number of memory responses ignored because the instruction is squashed
system.cpu0.iew.lsq.thread0.invAddrLoads            0                       # Number of loads ignored due to an invalid address
system.cpu0.iew.lsq.thread0.invAddrSwpfs            0                       # Number of software prefetches ignored due to an invalid address
system.cpu0.iew.lsq.thread0.memOrderViolation        13840                       # Number of memory ordering violations
system.cpu0.iew.lsq.thread0.rescheduledLoads      8874469                       # Number of loads that were rescheduled
system.cpu0.iew.lsq.thread0.squashedLoads     37878263                       # Number of loads squashed
system.cpu0.iew.lsq.thread0.squashedStores      9406121                       # Number of stores squashed
system.cpu0.iew.memOrderViolationEvents         13840                       # Number of memory order violations
system.cpu0.iew.predictedNotTakenIncorrect      2018784                       # Number of branches that were predicted not taken incorrectly
system.cpu0.iew.predictedTakenIncorrect      15697848                       # Number of branches that were predicted taken incorrectly
system.cpu0.iew.wb_consumers               1044340788                       # num instructions consuming a value
system.cpu0.iew.wb_count                   2293370095                       # cumulative count of insts written-back
system.cpu0.iew.wb_fanout                    0.839343                       # average fanout of values written-back
system.cpu0.iew.wb_producers                876560626                       # num instructions producing a value
system.cpu0.iew.wb_rate                      0.435428                       # insts written-back per cycle
system.cpu0.iew.wb_sent                    2293542775                       # cumulative count of insts sent to commit
system.cpu0.int_regfile_reads              2824071593                       # number of integer regfile reads
system.cpu0.int_regfile_writes             1466493767                       # number of integer regfile writes
system.cpu0.ipc                              0.422435                       # IPC: Instructions Per Cycle
system.cpu0.ipc_total                        0.422435                       # IPC: Total IPC of All Threads
system.cpu0.iq.FU_type_0::No_OpClass          7611771      0.33%      0.33% # Type of FU issued
system.cpu0.iq.FU_type_0::IntAlu           1278096245     55.09%     55.42% # Type of FU issued
system.cpu0.iq.FU_type_0::IntMult            18648458      0.80%     56.22% # Type of FU issued
system.cpu0.iq.FU_type_0::IntDiv              3802419      0.16%     56.38% # Type of FU issued
system.cpu0.iq.FU_type_0::FloatAdd                  0      0.00%     56.38% # Type of FU issued
system.cpu0.iq.FU_type_0::FloatCmp                  4      0.00%     56.38% # Type of FU issued
system.cpu0.iq.FU_type_0::FloatCvt                 12      0.00%     56.38% # Type of FU issued
system.cpu0.iq.FU_type_0::FloatMult                 0      0.00%     56.38% # Type of FU issued
system.cpu0.iq.FU_type_0::FloatMultAcc              0      0.00%     56.38% # Type of FU issued
system.cpu0.iq.FU_type_0::FloatDiv                  2      0.00%     56.38% # Type of FU issued
system.cpu0.iq.FU_type_0::FloatMisc                 4      0.00%     56.38% # Type of FU issued
system.cpu0.iq.FU_type_0::FloatSqrt                 0      0.00%     56.38% # Type of FU issued
system.cpu0.iq.FU_type_0::SimdAdd                   0      0.00%     56.38% # Type of FU issued
system.cpu0.iq.FU_type_0::SimdAddAcc                0      0.00%     56.38% # Type of FU issued
system.cpu0.iq.FU_type_0::SimdAlu                   0      0.00%     56.38% # Type of FU issued
system.cpu0.iq.FU_type_0::SimdCmp                   0      0.00%     56.38% # Type of FU issued
system.cpu0.iq.FU_type_0::SimdCvt                   0      0.00%     56.38% # Type of FU issued
system.cpu0.iq.FU_type_0::SimdMisc                  0      0.00%     56.38% # Type of FU issued
system.cpu0.iq.FU_type_0::SimdMult                  0      0.00%     56.38% # Type of FU issued
system.cpu0.iq.FU_type_0::SimdMultAcc               0      0.00%     56.38% # Type of FU issued
system.cpu0.iq.FU_type_0::SimdShift                 0      0.00%     56.38% # Type of FU issued
system.cpu0.iq.FU_type_0::SimdShiftAcc              0      0.00%     56.38% # Type of FU issued
system.cpu0.iq.FU_type_0::SimdDiv                   0      0.00%     56.38% # Type of FU issued
system.cpu0.iq.FU_type_0::SimdSqrt                  0      0.00%     56.38% # Type of FU issued
system.cpu0.iq.FU_type_0::SimdFloatAdd              0      0.00%     56.38% # Type of FU issued
system.cpu0.iq.FU_type_0::SimdFloatAlu              0      0.00%     56.38% # Type of FU issued
system.cpu0.iq.FU_type_0::SimdFloatCmp              0      0.00%     56.38% # Type of FU issued
system.cpu0.iq.FU_type_0::SimdFloatCvt              0      0.00%     56.38% # Type of FU issued
system.cpu0.iq.FU_type_0::SimdFloatDiv              0      0.00%     56.38% # Type of FU issued
system.cpu0.iq.FU_type_0::SimdFloatMisc             0      0.00%     56.38% # Type of FU issued
system.cpu0.iq.FU_type_0::SimdFloatMult             0      0.00%     56.38% # Type of FU issued
system.cpu0.iq.FU_type_0::SimdFloatMultAcc            0      0.00%     56.38% # Type of FU issued
system.cpu0.iq.FU_type_0::SimdFloatSqrt             0      0.00%     56.38% # Type of FU issued
system.cpu0.iq.FU_type_0::SimdReduceAdd             0      0.00%     56.38% # Type of FU issued
system.cpu0.iq.FU_type_0::SimdReduceAlu             0      0.00%     56.38% # Type of FU issued
system.cpu0.iq.FU_type_0::SimdReduceCmp             0      0.00%     56.38% # Type of FU issued
system.cpu0.iq.FU_type_0::SimdFloatReduceAdd            0      0.00%     56.38% # Type of FU issued
system.cpu0.iq.FU_type_0::SimdFloatReduceCmp            0      0.00%     56.38% # Type of FU issued
system.cpu0.iq.FU_type_0::SimdAes                   0      0.00%     56.38% # Type of FU issued
system.cpu0.iq.FU_type_0::SimdAesMix                0      0.00%     56.38% # Type of FU issued
system.cpu0.iq.FU_type_0::SimdSha1Hash              0      0.00%     56.38% # Type of FU issued
system.cpu0.iq.FU_type_0::SimdSha1Hash2             0      0.00%     56.38% # Type of FU issued
system.cpu0.iq.FU_type_0::SimdSha256Hash            0      0.00%     56.38% # Type of FU issued
system.cpu0.iq.FU_type_0::SimdSha256Hash2            0      0.00%     56.38% # Type of FU issued
system.cpu0.iq.FU_type_0::SimdShaSigma2             0      0.00%     56.38% # Type of FU issued
system.cpu0.iq.FU_type_0::SimdShaSigma3             0      0.00%     56.38% # Type of FU issued
system.cpu0.iq.FU_type_0::SimdPredAlu               0      0.00%     56.38% # Type of FU issued
system.cpu0.iq.FU_type_0::MemRead           739154874     31.86%     88.24% # Type of FU issued
system.cpu0.iq.FU_type_0::MemWrite          272773534     11.76%    100.00% # Type of FU issued
system.cpu0.iq.FU_type_0::FloatMemRead              9      0.00%    100.00% # Type of FU issued
system.cpu0.iq.FU_type_0::FloatMemWrite            20      0.00%    100.00% # Type of FU issued
system.cpu0.iq.FU_type_0::IprAccess                 0      0.00%    100.00% # Type of FU issued
system.cpu0.iq.FU_type_0::InstPrefetch              0      0.00%    100.00% # Type of FU issued
system.cpu0.iq.FU_type_0::total            2320087352                       # Type of FU issued
system.cpu0.iq.fp_alu_accesses                     55                       # Number of floating point alu accesses
system.cpu0.iq.fp_inst_queue_reads                106                       # Number of floating instruction queue reads
system.cpu0.iq.fp_inst_queue_wakeup_accesses           51                       # Number of floating instruction queue wakeup accesses
system.cpu0.iq.fp_inst_queue_writes                80                       # Number of floating instruction queue writes
system.cpu0.iq.fu_busy_cnt                    4971742                       # FU busy when requested
system.cpu0.iq.fu_busy_rate                  0.002143                       # FU busy rate (busy events/executed inst)
system.cpu0.iq.fu_full::No_OpClass                  0      0.00%      0.00% # attempts to use FU when none available
system.cpu0.iq.fu_full::IntAlu                 946847     19.04%     19.04% # attempts to use FU when none available
system.cpu0.iq.fu_full::IntMult                    26      0.00%     19.05% # attempts to use FU when none available
system.cpu0.iq.fu_full::IntDiv                      0      0.00%     19.05% # attempts to use FU when none available
system.cpu0.iq.fu_full::FloatAdd                    0      0.00%     19.05% # attempts to use FU when none available
system.cpu0.iq.fu_full::FloatCmp                    0      0.00%     19.05% # attempts to use FU when none available
system.cpu0.iq.fu_full::FloatCvt                    0      0.00%     19.05% # attempts to use FU when none available
system.cpu0.iq.fu_full::FloatMult                   0      0.00%     19.05% # attempts to use FU when none available
system.cpu0.iq.fu_full::FloatMultAcc                0      0.00%     19.05% # attempts to use FU when none available
system.cpu0.iq.fu_full::FloatDiv                    0      0.00%     19.05% # attempts to use FU when none available
system.cpu0.iq.fu_full::FloatMisc                   0      0.00%     19.05% # attempts to use FU when none available
system.cpu0.iq.fu_full::FloatSqrt                   0      0.00%     19.05% # attempts to use FU when none available
system.cpu0.iq.fu_full::SimdAdd                     0      0.00%     19.05% # attempts to use FU when none available
system.cpu0.iq.fu_full::SimdAddAcc                  0      0.00%     19.05% # attempts to use FU when none available
system.cpu0.iq.fu_full::SimdAlu                     0      0.00%     19.05% # attempts to use FU when none available
system.cpu0.iq.fu_full::SimdCmp                     0      0.00%     19.05% # attempts to use FU when none available
system.cpu0.iq.fu_full::SimdCvt                     0      0.00%     19.05% # attempts to use FU when none available
system.cpu0.iq.fu_full::SimdMisc                    0      0.00%     19.05% # attempts to use FU when none available
system.cpu0.iq.fu_full::SimdMult                    0      0.00%     19.05% # attempts to use FU when none available
system.cpu0.iq.fu_full::SimdMultAcc                 0      0.00%     19.05% # attempts to use FU when none available
system.cpu0.iq.fu_full::SimdShift                   0      0.00%     19.05% # attempts to use FU when none available
system.cpu0.iq.fu_full::SimdShiftAcc                0      0.00%     19.05% # attempts to use FU when none available
system.cpu0.iq.fu_full::SimdDiv                     0      0.00%     19.05% # attempts to use FU when none available
system.cpu0.iq.fu_full::SimdSqrt                    0      0.00%     19.05% # attempts to use FU when none available
system.cpu0.iq.fu_full::SimdFloatAdd                0      0.00%     19.05% # attempts to use FU when none available
system.cpu0.iq.fu_full::SimdFloatAlu                0      0.00%     19.05% # attempts to use FU when none available
system.cpu0.iq.fu_full::SimdFloatCmp                0      0.00%     19.05% # attempts to use FU when none available
system.cpu0.iq.fu_full::SimdFloatCvt                0      0.00%     19.05% # attempts to use FU when none available
system.cpu0.iq.fu_full::SimdFloatDiv                0      0.00%     19.05% # attempts to use FU when none available
system.cpu0.iq.fu_full::SimdFloatMisc               0      0.00%     19.05% # attempts to use FU when none available
system.cpu0.iq.fu_full::SimdFloatMult               0      0.00%     19.05% # attempts to use FU when none available
system.cpu0.iq.fu_full::SimdFloatMultAcc            0      0.00%     19.05% # attempts to use FU when none available
system.cpu0.iq.fu_full::SimdFloatSqrt               0      0.00%     19.05% # attempts to use FU when none available
system.cpu0.iq.fu_full::SimdReduceAdd               0      0.00%     19.05% # attempts to use FU when none available
system.cpu0.iq.fu_full::SimdReduceAlu               0      0.00%     19.05% # attempts to use FU when none available
system.cpu0.iq.fu_full::SimdReduceCmp               0      0.00%     19.05% # attempts to use FU when none available
system.cpu0.iq.fu_full::SimdFloatReduceAdd            0      0.00%     19.05% # attempts to use FU when none available
system.cpu0.iq.fu_full::SimdFloatReduceCmp            0      0.00%     19.05% # attempts to use FU when none available
system.cpu0.iq.fu_full::SimdAes                     0      0.00%     19.05% # attempts to use FU when none available
system.cpu0.iq.fu_full::SimdAesMix                  0      0.00%     19.05% # attempts to use FU when none available
system.cpu0.iq.fu_full::SimdSha1Hash                0      0.00%     19.05% # attempts to use FU when none available
system.cpu0.iq.fu_full::SimdSha1Hash2               0      0.00%     19.05% # attempts to use FU when none available
system.cpu0.iq.fu_full::SimdSha256Hash              0      0.00%     19.05% # attempts to use FU when none available
system.cpu0.iq.fu_full::SimdSha256Hash2             0      0.00%     19.05% # attempts to use FU when none available
system.cpu0.iq.fu_full::SimdShaSigma2               0      0.00%     19.05% # attempts to use FU when none available
system.cpu0.iq.fu_full::SimdShaSigma3               0      0.00%     19.05% # attempts to use FU when none available
system.cpu0.iq.fu_full::SimdPredAlu                 0      0.00%     19.05% # attempts to use FU when none available
system.cpu0.iq.fu_full::MemRead               3457669     69.55%     88.59% # attempts to use FU when none available
system.cpu0.iq.fu_full::MemWrite               567196     11.41%    100.00% # attempts to use FU when none available
>>>>>>> 6be7a0502e78ebf80a09b838e3e9c0d652379c93
system.cpu0.iq.fu_full::FloatMemRead                0      0.00%    100.00% # attempts to use FU when none available
system.cpu0.iq.fu_full::FloatMemWrite               4      0.00%    100.00% # attempts to use FU when none available
system.cpu0.iq.fu_full::IprAccess                   0      0.00%    100.00% # attempts to use FU when none available
system.cpu0.iq.fu_full::InstPrefetch                0      0.00%    100.00% # attempts to use FU when none available
<<<<<<< HEAD
system.cpu0.iq.int_alu_accesses            2323068240                       # Number of integer alu accesses
system.cpu0.iq.int_inst_queue_reads        8176101569                       # Number of integer instruction queue reads
system.cpu0.iq.int_inst_queue_wakeup_accesses   2283528153                       # Number of integer instruction queue wakeup accesses
system.cpu0.iq.int_inst_queue_writes       2502948780                       # Number of integer instruction queue writes
system.cpu0.iq.iqInstsAdded                2317944671                       # Number of instructions added to the IQ (excludes non-spec)
system.cpu0.iq.iqInstsIssued               2323779199                       # Number of instructions issued
system.cpu0.iq.iqNonSpecInstsAdded            5718570                       # Number of non-speculative instructions added to the IQ
system.cpu0.iq.iqSquashedInstsExamined      179270652                       # Number of squashed instructions iterated over during squash; mainly for profiling
system.cpu0.iq.iqSquashedInstsIssued           209016                       # Number of squashed instructions issued
system.cpu0.iq.iqSquashedNonSpecRemoved           576                       # Number of squashed non-spec instructions that were removed
system.cpu0.iq.iqSquashedOperandsExamined     36787936                       # Number of squashed operands that are examined and possibly removed from graph
system.cpu0.iq.issued_per_cycle::samples   3525234447                       # Number of insts issued each cycle
system.cpu0.iq.issued_per_cycle::mean        0.659184                       # Number of insts issued each cycle
system.cpu0.iq.issued_per_cycle::stdev       0.858726                       # Number of insts issued each cycle
system.cpu0.iq.issued_per_cycle::underflows            0      0.00%      0.00% # Number of insts issued each cycle
system.cpu0.iq.issued_per_cycle::0         1896839284     53.81%     53.81% # Number of insts issued each cycle
system.cpu0.iq.issued_per_cycle::1         1102176691     31.27%     85.07% # Number of insts issued each cycle
system.cpu0.iq.issued_per_cycle::2          385522319     10.94%     96.01% # Number of insts issued each cycle
system.cpu0.iq.issued_per_cycle::3          118823574      3.37%     99.38% # Number of insts issued each cycle
system.cpu0.iq.issued_per_cycle::4           18277080      0.52%     99.90% # Number of insts issued each cycle
system.cpu0.iq.issued_per_cycle::5            1483761      0.04%     99.94% # Number of insts issued each cycle
system.cpu0.iq.issued_per_cycle::6            1497653      0.04%     99.98% # Number of insts issued each cycle
system.cpu0.iq.issued_per_cycle::7             338575      0.01%     99.99% # Number of insts issued each cycle
system.cpu0.iq.issued_per_cycle::8             275510      0.01%    100.00% # Number of insts issued each cycle
system.cpu0.iq.issued_per_cycle::overflows            0      0.00%    100.00% # Number of insts issued each cycle
system.cpu0.iq.issued_per_cycle::min_value            0                       # Number of insts issued each cycle
system.cpu0.iq.issued_per_cycle::max_value            8                       # Number of insts issued each cycle
system.cpu0.iq.issued_per_cycle::total     3525234447                       # Number of insts issued each cycle
system.cpu0.iq.rate                          0.587789                       # Inst issue rate
=======
system.cpu0.iq.int_alu_accesses            2317447268                       # Number of integer alu accesses
system.cpu0.iq.int_inst_queue_reads        8476558018                       # Number of integer instruction queue reads
system.cpu0.iq.int_inst_queue_wakeup_accesses   2293370044                       # Number of integer instruction queue wakeup accesses
system.cpu0.iq.int_inst_queue_writes       2418256682                       # Number of integer instruction queue writes
system.cpu0.iq.iqInstsAdded                2312073293                       # Number of instructions added to the IQ (excludes non-spec)
system.cpu0.iq.iqInstsIssued               2320087352                       # Number of instructions issued
system.cpu0.iq.iqNonSpecInstsAdded           11419915                       # Number of non-speculative instructions added to the IQ
system.cpu0.iq.iqSquashedInstsExamined       94751359                       # Number of squashed instructions iterated over during squash; mainly for profiling
system.cpu0.iq.iqSquashedInstsIssued           377237                       # Number of squashed instructions issued
system.cpu0.iq.iqSquashedNonSpecRemoved           435                       # Number of squashed non-spec instructions that were removed
system.cpu0.iq.iqSquashedOperandsExamined     30793815                       # Number of squashed operands that are examined and possibly removed from graph
system.cpu0.iq.issued_per_cycle::samples   3831034441                       # Number of insts issued each cycle
system.cpu0.iq.issued_per_cycle::mean        0.605603                       # Number of insts issued each cycle
system.cpu0.iq.issued_per_cycle::stdev       0.846022                       # Number of insts issued each cycle
system.cpu0.iq.issued_per_cycle::underflows            0      0.00%      0.00% # Number of insts issued each cycle
system.cpu0.iq.issued_per_cycle::0         2209443071     57.67%     57.67% # Number of insts issued each cycle
system.cpu0.iq.issued_per_cycle::1         1098368265     28.67%     86.34% # Number of insts issued each cycle
system.cpu0.iq.issued_per_cycle::2          375592472      9.80%     96.15% # Number of insts issued each cycle
system.cpu0.iq.issued_per_cycle::3          127399284      3.33%     99.47% # Number of insts issued each cycle
system.cpu0.iq.issued_per_cycle::4           16215150      0.42%     99.90% # Number of insts issued each cycle
system.cpu0.iq.issued_per_cycle::5            1640737      0.04%     99.94% # Number of insts issued each cycle
system.cpu0.iq.issued_per_cycle::6            1640287      0.04%     99.98% # Number of insts issued each cycle
system.cpu0.iq.issued_per_cycle::7             451116      0.01%     99.99% # Number of insts issued each cycle
system.cpu0.iq.issued_per_cycle::8             284059      0.01%    100.00% # Number of insts issued each cycle
system.cpu0.iq.issued_per_cycle::overflows            0      0.00%    100.00% # Number of insts issued each cycle
system.cpu0.iq.issued_per_cycle::min_value            0                       # Number of insts issued each cycle
system.cpu0.iq.issued_per_cycle::max_value            8                       # Number of insts issued each cycle
system.cpu0.iq.issued_per_cycle::total     3831034441                       # Number of insts issued each cycle
system.cpu0.iq.rate                          0.440501                       # Inst issue rate
>>>>>>> 6be7a0502e78ebf80a09b838e3e9c0d652379c93
system.cpu0.iq.vec_alu_accesses                     0                       # Number of vector alu accesses
system.cpu0.iq.vec_inst_queue_reads                 0                       # Number of vector instruction queue reads
system.cpu0.iq.vec_inst_queue_wakeup_accesses            0                       # Number of vector instruction queue wakeup accesses
system.cpu0.iq.vec_inst_queue_writes                0                       # Number of vector instruction queue writes
system.cpu0.itb.accesses                            0                       # DTB accesses
system.cpu0.itb.hits                                0                       # DTB hits
system.cpu0.itb.misses                              0                       # DTB misses
system.cpu0.itb.read_accesses                       0                       # DTB read accesses
system.cpu0.itb.read_hits                           0                       # DTB read hits
system.cpu0.itb.read_misses                         0                       # DTB read misses
system.cpu0.itb.write_accesses                      0                       # DTB write accesses
system.cpu0.itb.write_hits                          0                       # DTB write hits
system.cpu0.itb.write_misses                        0                       # DTB write misses
<<<<<<< HEAD
[...]
system.cpu1.dcache.WriteReq_mshr_miss_rate::total     0.047996                       # mshr miss rate for WriteReq accesses
system.cpu1.dcache.WriteReq_avg_mshr_miss_latency::.cpu1.data 60668.666174                       # average WriteReq mshr miss latency
system.cpu1.dcache.WriteReq_avg_mshr_miss_latency::total 60668.666174                       # average WriteReq mshr miss latency
system.cpu1.dcache.LoadLockedReq_hits::.cpu1.data       137983                       # number of LoadLockedReq hits
system.cpu1.dcache.LoadLockedReq_hits::total       137983                       # number of LoadLockedReq hits
system.cpu1.dcache.LoadLockedReq_misses::.cpu1.data          808                       # number of LoadLockedReq misses
system.cpu1.dcache.LoadLockedReq_misses::total          808                       # number of LoadLockedReq misses
system.cpu1.dcache.LoadLockedReq_miss_latency::.cpu1.data     43416000                       # number of LoadLockedReq miss cycles
system.cpu1.dcache.LoadLockedReq_miss_latency::total     43416000                       # number of LoadLockedReq miss cycles
system.cpu1.dcache.LoadLockedReq_accesses::.cpu1.data       138791                       # number of LoadLockedReq accesses(hits+misses)
system.cpu1.dcache.LoadLockedReq_accesses::total       138791                       # number of LoadLockedReq accesses(hits+misses)
system.cpu1.dcache.LoadLockedReq_miss_rate::.cpu1.data     0.005822                       # miss rate for LoadLockedReq accesses
system.cpu1.dcache.LoadLockedReq_miss_rate::total     0.005822                       # miss rate for LoadLockedReq accesses
system.cpu1.dcache.LoadLockedReq_avg_miss_latency::.cpu1.data 53732.673267                       # average LoadLockedReq miss latency
system.cpu1.dcache.LoadLockedReq_avg_miss_latency::total 53732.673267                       # average LoadLockedReq miss latency
system.cpu1.dcache.LoadLockedReq_mshr_hits::.cpu1.data          317                       # number of LoadLockedReq MSHR hits
system.cpu1.dcache.LoadLockedReq_mshr_hits::total          317                       # number of LoadLockedReq MSHR hits
system.cpu1.dcache.LoadLockedReq_mshr_misses::.cpu1.data          491                       # number of LoadLockedReq MSHR misses
system.cpu1.dcache.LoadLockedReq_mshr_misses::total          491                       # number of LoadLockedReq MSHR misses
system.cpu1.dcache.LoadLockedReq_mshr_miss_latency::.cpu1.data     22885000                       # number of LoadLockedReq MSHR miss cycles
system.cpu1.dcache.LoadLockedReq_mshr_miss_latency::total     22885000                       # number of LoadLockedReq MSHR miss cycles
system.cpu1.dcache.LoadLockedReq_mshr_miss_rate::.cpu1.data     0.003538                       # mshr miss rate for LoadLockedReq accesses
system.cpu1.dcache.LoadLockedReq_mshr_miss_rate::total     0.003538                       # mshr miss rate for LoadLockedReq accesses
system.cpu1.dcache.LoadLockedReq_avg_mshr_miss_latency::.cpu1.data 46608.961303                       # average LoadLockedReq mshr miss latency
system.cpu1.dcache.LoadLockedReq_avg_mshr_miss_latency::total 46608.961303                       # average LoadLockedReq mshr miss latency
system.cpu1.dcache.StoreCondReq_hits::.cpu1.data       136536                       # number of StoreCondReq hits
system.cpu1.dcache.StoreCondReq_hits::total       136536                       # number of StoreCondReq hits
system.cpu1.dcache.StoreCondReq_misses::.cpu1.data         2021                       # number of StoreCondReq misses
system.cpu1.dcache.StoreCondReq_misses::total         2021                       # number of StoreCondReq misses
system.cpu1.dcache.StoreCondReq_miss_latency::.cpu1.data     14563500                       # number of StoreCondReq miss cycles
system.cpu1.dcache.StoreCondReq_miss_latency::total     14563500                       # number of StoreCondReq miss cycles
system.cpu1.dcache.StoreCondReq_accesses::.cpu1.data       138557                       # number of StoreCondReq accesses(hits+misses)
system.cpu1.dcache.StoreCondReq_accesses::total       138557                       # number of StoreCondReq accesses(hits+misses)
system.cpu1.dcache.StoreCondReq_miss_rate::.cpu1.data     0.014586                       # miss rate for StoreCondReq accesses
system.cpu1.dcache.StoreCondReq_miss_rate::total     0.014586                       # miss rate for StoreCondReq accesses
system.cpu1.dcache.StoreCondReq_avg_miss_latency::.cpu1.data  7206.086096                       # average StoreCondReq miss latency
system.cpu1.dcache.StoreCondReq_avg_miss_latency::total  7206.086096                       # average StoreCondReq miss latency
system.cpu1.dcache.StoreCondReq_mshr_misses::.cpu1.data         1968                       # number of StoreCondReq MSHR misses
system.cpu1.dcache.StoreCondReq_mshr_misses::total         1968                       # number of StoreCondReq MSHR misses
system.cpu1.dcache.StoreCondReq_mshr_miss_latency::.cpu1.data     12612500                       # number of StoreCondReq MSHR miss cycles
system.cpu1.dcache.StoreCondReq_mshr_miss_latency::total     12612500                       # number of StoreCondReq MSHR miss cycles
system.cpu1.dcache.StoreCondReq_mshr_miss_rate::.cpu1.data     0.014204                       # mshr miss rate for StoreCondReq accesses
system.cpu1.dcache.StoreCondReq_mshr_miss_rate::total     0.014204                       # mshr miss rate for StoreCondReq accesses
system.cpu1.dcache.StoreCondReq_avg_mshr_miss_latency::.cpu1.data  6408.790650                       # average StoreCondReq mshr miss latency
system.cpu1.dcache.StoreCondReq_avg_mshr_miss_latency::total  6408.790650                       # average StoreCondReq mshr miss latency
system.cpu1.dcache.StoreCondFailReq_miss_latency::.cpu1.data       456000                       # number of StoreCondFailReq miss cycles
system.cpu1.dcache.StoreCondFailReq_miss_latency::total       456000                       # number of StoreCondFailReq miss cycles
system.cpu1.dcache.StoreCondFailReq_avg_miss_latency::.cpu1.data          inf                       # average StoreCondFailReq miss latency
system.cpu1.dcache.StoreCondFailReq_avg_miss_latency::total          inf                       # average StoreCondFailReq miss latency
system.cpu1.dcache.StoreCondFailReq_mshr_miss_latency::.cpu1.data       439000                       # number of StoreCondFailReq MSHR miss cycles
system.cpu1.dcache.StoreCondFailReq_mshr_miss_latency::total       439000                       # number of StoreCondFailReq MSHR miss cycles
system.cpu1.dcache.StoreCondFailReq_avg_mshr_miss_latency::.cpu1.data          inf                       # average StoreCondFailReq mshr miss latency
system.cpu1.dcache.StoreCondFailReq_avg_mshr_miss_latency::total          inf                       # average StoreCondFailReq mshr miss latency
system.cpu1.dcache.SwapReq_hits::.cpu1.data         1825                       # number of SwapReq hits
system.cpu1.dcache.SwapReq_hits::total           1825                       # number of SwapReq hits
system.cpu1.dcache.SwapReq_misses::.cpu1.data         7113                       # number of SwapReq misses
system.cpu1.dcache.SwapReq_misses::total         7113                       # number of SwapReq misses
system.cpu1.dcache.SwapReq_miss_latency::.cpu1.data    305549500                       # number of SwapReq miss cycles
system.cpu1.dcache.SwapReq_miss_latency::total    305549500                       # number of SwapReq miss cycles
system.cpu1.dcache.SwapReq_accesses::.cpu1.data         8938                       # number of SwapReq accesses(hits+misses)
system.cpu1.dcache.SwapReq_accesses::total         8938                       # number of SwapReq accesses(hits+misses)
system.cpu1.dcache.SwapReq_miss_rate::.cpu1.data     0.795816                       # miss rate for SwapReq accesses
system.cpu1.dcache.SwapReq_miss_rate::total     0.795816                       # miss rate for SwapReq accesses
system.cpu1.dcache.SwapReq_avg_miss_latency::.cpu1.data 42956.488120                       # average SwapReq miss latency
system.cpu1.dcache.SwapReq_avg_miss_latency::total 42956.488120                       # average SwapReq miss latency
system.cpu1.dcache.SwapReq_mshr_misses::.cpu1.data         7113                       # number of SwapReq MSHR misses
system.cpu1.dcache.SwapReq_mshr_misses::total         7113                       # number of SwapReq MSHR misses
system.cpu1.dcache.SwapReq_mshr_miss_latency::.cpu1.data    298436500                       # number of SwapReq MSHR miss cycles
system.cpu1.dcache.SwapReq_mshr_miss_latency::total    298436500                       # number of SwapReq MSHR miss cycles
system.cpu1.dcache.SwapReq_mshr_miss_rate::.cpu1.data     0.795816                       # mshr miss rate for SwapReq accesses
system.cpu1.dcache.SwapReq_mshr_miss_rate::total     0.795816                       # mshr miss rate for SwapReq accesses
system.cpu1.dcache.SwapReq_avg_mshr_miss_latency::.cpu1.data 41956.488120                       # average SwapReq mshr miss latency
system.cpu1.dcache.SwapReq_avg_mshr_miss_latency::total 41956.488120                       # average SwapReq mshr miss latency
system.cpu1.dcache.tags.pwrStateResidencyTicks::UNDEFINED 223963368500                       # Cumulative time (in ticks) in various power states
system.cpu1.dcache.tags.tagsinuse           31.499308                       # Cycle average of tags in use
system.cpu1.dcache.tags.total_refs           48396010                       # Total number of references to valid blocks.
system.cpu1.dcache.tags.sampled_refs          5428346                       # Sample count of references to valid blocks.
system.cpu1.dcache.tags.avg_refs             8.915425                       # Average number of references to valid blocks.
system.cpu1.dcache.tags.warmup_cycle                0                       # Cycle when the warmup percentage was hit.
system.cpu1.dcache.tags.occ_blocks::.cpu1.data    31.499308                       # Average occupied blocks per requestor
system.cpu1.dcache.tags.occ_percent::.cpu1.data     0.984353                       # Average percentage of cache occupancy
system.cpu1.dcache.tags.occ_percent::total     0.984353                       # Average percentage of cache occupancy
system.cpu1.dcache.tags.occ_task_id_blocks::1024           28                       # Occupied blocks per task id
system.cpu1.dcache.tags.age_task_id_blocks_1024::1           28                       # Occupied blocks per task id
system.cpu1.dcache.tags.occ_task_id_percent::1024     0.875000                       # Percentage of cache occupancy per task id
system.cpu1.dcache.tags.tag_accesses        133289172                       # Number of tag accesses
system.cpu1.dcache.tags.data_accesses       133289172                       # Number of data accesses
system.cpu_clk_domain.clock                       500                       # Clock period in ticks
system.tol2bus.pwrStateResidencyTicks::UNDEFINED 223963368500                       # Cumulative time (in ticks) in various power states
system.tol2bus.trans_dist::ReadResp          10852784                       # Transaction distribution
system.tol2bus.trans_dist::WritebackDirty      2070450                       # Transaction distribution
system.tol2bus.trans_dist::WritebackClean      9858252                       # Transaction distribution
system.tol2bus.trans_dist::CleanEvict        17334769                       # Transaction distribution
system.tol2bus.trans_dist::HardPFReq          5293062                       # Transaction distribution
system.tol2bus.trans_dist::HardPFResp               8                       # Transaction distribution
system.tol2bus.trans_dist::UpgradeReq          124603                       # Transaction distribution
system.tol2bus.trans_dist::SCUpgradeReq          4227                       # Transaction distribution
system.tol2bus.trans_dist::UpgradeResp         128830                       # Transaction distribution
system.tol2bus.trans_dist::SCUpgradeFailReq           26                       # Transaction distribution
system.tol2bus.trans_dist::UpgradeFailResp           26                       # Transaction distribution
system.tol2bus.trans_dist::ReadExReq           407477                       # Transaction distribution
system.tol2bus.trans_dist::ReadExResp          407477                       # Transaction distribution
system.tol2bus.trans_dist::ReadCleanReq        143227                       # Transaction distribution
system.tol2bus.trans_dist::ReadSharedReq     10709556                       # Transaction distribution
system.tol2bus.trans_dist::InvalidateReq         4304                       # Transaction distribution
system.tol2bus.trans_dist::InvalidateResp         4304                       # Transaction distribution
system.tol2bus.pkt_count_system.cpu0.icache.mem_side::system.l2.cpu_side       356216                       # Packet count per connected master and slave (bytes)
system.tol2bus.pkt_count_system.cpu0.dcache.mem_side::system.l2.cpu_side     16981393                       # Packet count per connected master and slave (bytes)
system.tol2bus.pkt_count_system.cpu1.icache.mem_side::system.l2.cpu_side        73467                       # Packet count per connected master and slave (bytes)
system.tol2bus.pkt_count_system.cpu1.dcache.mem_side::system.l2.cpu_side     16185740                       # Packet count per connected master and slave (bytes)
system.tol2bus.pkt_count::total              33596816                       # Packet count per connected master and slave (bytes)
system.tol2bus.pkt_size_system.cpu0.icache.mem_side::system.l2.cpu_side     15198592                       # Cumulative packet size per connected master and slave (bytes)
system.tol2bus.pkt_size_system.cpu0.dcache.mem_side::system.l2.cpu_side    717273600                       # Cumulative packet size per connected master and slave (bytes)
system.tol2bus.pkt_size_system.cpu1.icache.mem_side::system.l2.cpu_side      3134592                       # Cumulative packet size per connected master and slave (bytes)
system.tol2bus.pkt_size_system.cpu1.dcache.mem_side::system.l2.cpu_side    683587840                       # Cumulative packet size per connected master and slave (bytes)
system.tol2bus.pkt_size::total             1419194624                       # Cumulative packet size per connected master and slave (bytes)
system.tol2bus.snoops                        23746574                       # Total snoops (count)
system.tol2bus.snoopTraffic                  64901696                       # Total snoop traffic (bytes)
system.tol2bus.snoop_fanout::samples         34859528                       # Request fanout histogram
system.tol2bus.snoop_fanout::mean            0.276890                       # Request fanout histogram
system.tol2bus.snoop_fanout::stdev           0.468802                       # Request fanout histogram
system.tol2bus.snoop_fanout::underflows             0      0.00%      0.00% # Request fanout histogram
system.tol2bus.snoop_fanout::0               25548084     73.29%     73.29% # Request fanout histogram
system.tol2bus.snoop_fanout::1                8970637     25.73%     99.02% # Request fanout histogram
system.tol2bus.snoop_fanout::2                 340807      0.98%    100.00% # Request fanout histogram
system.tol2bus.snoop_fanout::3                      0      0.00%    100.00% # Request fanout histogram
system.tol2bus.snoop_fanout::4                      0      0.00%    100.00% # Request fanout histogram
>>>>>>> 6be7a0502e78ebf80a09b838e3e9c0d652379c93
system.tol2bus.snoop_fanout::5                      0      0.00%    100.00% # Request fanout histogram
system.tol2bus.snoop_fanout::6                      0      0.00%    100.00% # Request fanout histogram
system.tol2bus.snoop_fanout::7                      0      0.00%    100.00% # Request fanout histogram
system.tol2bus.snoop_fanout::8                      0      0.00%    100.00% # Request fanout histogram
system.tol2bus.snoop_fanout::overflows              0      0.00%    100.00% # Request fanout histogram
system.tol2bus.snoop_fanout::min_value              0                       # Request fanout histogram
<<<<<<< HEAD
system.tol2bus.snoop_fanout::max_value              4                       # Request fanout histogram
system.tol2bus.snoop_fanout::total           30939824                       # Request fanout histogram
system.tol2bus.reqLayer0.occupancy        22388937264                       # Layer occupancy (ticks)
system.tol2bus.reqLayer0.utilization             16.1                       # Layer utilization (%)
system.tol2bus.respLayer5.occupancy        4085244493                       # Layer occupancy (ticks)
system.tol2bus.respLayer5.utilization             2.9                       # Layer utilization (%)
system.tol2bus.respLayer4.occupancy          40791926                       # Layer occupancy (ticks)
system.tol2bus.respLayer4.utilization             0.0                       # Layer utilization (%)
system.tol2bus.respLayer7.occupancy        4099641743                       # Layer occupancy (ticks)
system.tol2bus.respLayer7.utilization             2.9                       # Layer utilization (%)
system.tol2bus.respLayer6.occupancy          41031999                       # Layer occupancy (ticks)
system.tol2bus.respLayer6.utilization             0.0                       # Layer utilization (%)
system.tol2bus.respLayer1.occupancy        4370431628                       # Layer occupancy (ticks)
system.tol2bus.respLayer1.utilization             3.1                       # Layer utilization (%)
system.tol2bus.respLayer0.occupancy         181632284                       # Layer occupancy (ticks)
system.tol2bus.respLayer0.utilization             0.1                       # Layer utilization (%)
system.tol2bus.respLayer3.occupancy        4136916818                       # Layer occupancy (ticks)
system.tol2bus.respLayer3.utilization             3.0                       # Layer utilization (%)
system.tol2bus.respLayer2.occupancy          41243654                       # Layer occupancy (ticks)
system.tol2bus.respLayer2.utilization             0.0                       # Layer utilization (%)
system.tol2bus.snoopLayer0.occupancy            21015                       # Layer occupancy (ticks)
=======
system.tol2bus.snoop_fanout::max_value              2                       # Request fanout histogram
system.tol2bus.snoop_fanout::total           34859528                       # Request fanout histogram
system.tol2bus.reqLayer0.occupancy        22341239689                       # Layer occupancy (ticks)
system.tol2bus.reqLayer0.utilization             10.0                       # Layer utilization (%)
system.tol2bus.respLayer1.occupancy        8586381276                       # Layer occupancy (ticks)
system.tol2bus.respLayer1.utilization             3.8                       # Layer utilization (%)
system.tol2bus.respLayer0.occupancy         178245725                       # Layer occupancy (ticks)
system.tol2bus.respLayer0.utilization             0.1                       # Layer utilization (%)
system.tol2bus.respLayer3.occupancy        8194008484                       # Layer occupancy (ticks)
system.tol2bus.respLayer3.utilization             3.7                       # Layer utilization (%)
system.tol2bus.respLayer2.occupancy          36922122                       # Layer occupancy (ticks)
system.tol2bus.respLayer2.utilization             0.0                       # Layer utilization (%)
system.tol2bus.snoopLayer0.occupancy            12008                       # Layer occupancy (ticks)
>>>>>>> 6be7a0502e78ebf80a09b838e3e9c0d652379c93
system.tol2bus.snoopLayer0.utilization            0.0                       # Layer utilization (%)

---------- End Simulation Statistics   ----------
