
---------- Begin Simulation Statistics ----------
final_tick                               1283841651000                       # Number of ticks from beginning of simulation (restored from checkpoints and never reset)
host_inst_rate                                  60609                       # Simulator instruction rate (inst/s)
host_mem_usage                                 702044                       # Number of bytes of host memory used
host_op_rate                                    60786                       # Simulator op (including micro ops) rate (op/s)
host_seconds                                 23703.10                       # Real time elapsed on the host
host_tick_rate                               54163448                       # Simulator tick rate (ticks/s)
sim_freq                                 1000000000000                       # Frequency of simulated ticks
sim_insts                                  1436616373                       # Number of instructions simulated
sim_ops                                    1440820121                       # Number of ops (including micro ops) simulated
sim_seconds                                  1.283842                       # Number of seconds simulated
sim_ticks                                1283841651000                       # Number of ticks simulated
system.cpu0.branchPred.BTBCorrect                   0                       # Number of correct BTB predictions (this stat may not work properly.
system.cpu0.branchPred.BTBHitPct            88.968364                       # BTB Hit Percentage
system.cpu0.branchPred.BTBHits              190828588                       # Number of BTB hits
system.cpu0.branchPred.BTBLookups           214490387                       # Number of BTB lookups
system.cpu0.branchPred.RASInCorrect                 0                       # Number of incorrect RAS predictions.
system.cpu0.branchPred.condIncorrect         28340329                       # Number of conditional branches incorrect
system.cpu0.branchPred.condPredicted        276967640                       # Number of conditional branches predicted
system.cpu0.branchPred.indirectHits          21234108                       # Number of indirect target hits.
system.cpu0.branchPred.indirectLookups       22578493                       # Number of indirect predictor lookups.
system.cpu0.branchPred.indirectMisses         1344385                       # Number of indirect misses.
system.cpu0.branchPred.lookups              354941357                       # Number of BP lookups
system.cpu0.branchPred.usedRAS                      0                       # Number of times the RAS was used to get a target.
system.cpu0.branchPredindirectMispredicted      2188150                       # Number of mispredicted indirect branches.
system.cpu0.commit.amos                       2100290                       # Number of atomic instructions committed
system.cpu0.commit.branchMispredicts         14599309                       # The number of times a branch was mispredicted
system.cpu0.commit.branches                 329546168                       # Number of branches committed
system.cpu0.commit.bw_lim_events             37845693                       # number cycles where commit BW limit reached
system.cpu0.commit.commitNonSpecStalls        6309752                       # The number of times commit has been forced to stall to communicate backwards
system.cpu0.commit.commitSquashedInsts       79022967                       # The number of squashed insts skipped by commit
system.cpu0.commit.committedInsts          1316552234                       # Number of instructions committed
system.cpu0.commit.committedOps            1318655807                       # Number of ops (including micro ops) committed
system.cpu0.commit.committed_per_cycle::samples   2364339429                       # Number of insts commited each cycle
system.cpu0.commit.committed_per_cycle::mean     0.557727                       # Number of insts commited each cycle
system.cpu0.commit.committed_per_cycle::stdev     1.312876                       # Number of insts commited each cycle
system.cpu0.commit.committed_per_cycle::underflows            0      0.00%      0.00% # Number of insts commited each cycle
system.cpu0.commit.committed_per_cycle::0   1720149662     72.75%     72.75% # Number of insts commited each cycle
system.cpu0.commit.committed_per_cycle::1    378127621     15.99%     88.75% # Number of insts commited each cycle
system.cpu0.commit.committed_per_cycle::2    109822480      4.64%     93.39% # Number of insts commited each cycle
system.cpu0.commit.committed_per_cycle::3     79325408      3.36%     96.75% # Number of insts commited each cycle
system.cpu0.commit.committed_per_cycle::4     22948243      0.97%     97.72% # Number of insts commited each cycle
system.cpu0.commit.committed_per_cycle::5      9302883      0.39%     98.11% # Number of insts commited each cycle
system.cpu0.commit.committed_per_cycle::6      5888002      0.25%     98.36% # Number of insts commited each cycle
system.cpu0.commit.committed_per_cycle::7       929437      0.04%     98.40% # Number of insts commited each cycle
system.cpu0.commit.committed_per_cycle::8     37845693      1.60%    100.00% # Number of insts commited each cycle
system.cpu0.commit.committed_per_cycle::overflows            0      0.00%    100.00% # Number of insts commited each cycle
system.cpu0.commit.committed_per_cycle::min_value            0                       # Number of insts commited each cycle
system.cpu0.commit.committed_per_cycle::max_value            8                       # Number of insts commited each cycle
system.cpu0.commit.committed_per_cycle::total   2364339429                       # Number of insts commited each cycle
system.cpu0.commit.fp_insts                        46                       # Number of committed floating point instructions.
system.cpu0.commit.function_calls            25143438                       # Number of function calls committed.
system.cpu0.commit.int_insts               1273923901                       # Number of committed integer instructions.
system.cpu0.commit.loads                    405171470                       # Number of loads committed
system.cpu0.commit.membars                    4203732                       # Number of memory barriers committed
system.cpu0.commit.op_class_0::No_OpClass      4203738      0.32%      0.32% # Class of committed instruction
system.cpu0.commit.op_class_0::IntAlu       742064250     56.27%     56.59% # Class of committed instruction
system.cpu0.commit.op_class_0::IntMult       11831786      0.90%     57.49% # Class of committed instruction
system.cpu0.commit.op_class_0::IntDiv         2099835      0.16%     57.65% # Class of committed instruction
system.cpu0.commit.op_class_0::FloatAdd             0      0.00%     57.65% # Class of committed instruction
system.cpu0.commit.op_class_0::FloatCmp             4      0.00%     57.65% # Class of committed instruction
system.cpu0.commit.op_class_0::FloatCvt            12      0.00%     57.65% # Class of committed instruction
system.cpu0.commit.op_class_0::FloatMult            0      0.00%     57.65% # Class of committed instruction
system.cpu0.commit.op_class_0::FloatMultAcc            0      0.00%     57.65% # Class of committed instruction
system.cpu0.commit.op_class_0::FloatDiv             2      0.00%     57.65% # Class of committed instruction
system.cpu0.commit.op_class_0::FloatMisc            4      0.00%     57.65% # Class of committed instruction
system.cpu0.commit.op_class_0::FloatSqrt            0      0.00%     57.65% # Class of committed instruction
system.cpu0.commit.op_class_0::SimdAdd              0      0.00%     57.65% # Class of committed instruction
system.cpu0.commit.op_class_0::SimdAddAcc            0      0.00%     57.65% # Class of committed instruction
system.cpu0.commit.op_class_0::SimdAlu              0      0.00%     57.65% # Class of committed instruction
system.cpu0.commit.op_class_0::SimdCmp              0      0.00%     57.65% # Class of committed instruction
system.cpu0.commit.op_class_0::SimdCvt              0      0.00%     57.65% # Class of committed instruction
system.cpu0.commit.op_class_0::SimdMisc             0      0.00%     57.65% # Class of committed instruction
system.cpu0.commit.op_class_0::SimdMult             0      0.00%     57.65% # Class of committed instruction
system.cpu0.commit.op_class_0::SimdMultAcc            0      0.00%     57.65% # Class of committed instruction
system.cpu0.commit.op_class_0::SimdShift            0      0.00%     57.65% # Class of committed instruction
system.cpu0.commit.op_class_0::SimdShiftAcc            0      0.00%     57.65% # Class of committed instruction
system.cpu0.commit.op_class_0::SimdDiv              0      0.00%     57.65% # Class of committed instruction
system.cpu0.commit.op_class_0::SimdSqrt             0      0.00%     57.65% # Class of committed instruction
system.cpu0.commit.op_class_0::SimdFloatAdd            0      0.00%     57.65% # Class of committed instruction
system.cpu0.commit.op_class_0::SimdFloatAlu            0      0.00%     57.65% # Class of committed instruction
system.cpu0.commit.op_class_0::SimdFloatCmp            0      0.00%     57.65% # Class of committed instruction
system.cpu0.commit.op_class_0::SimdFloatCvt            0      0.00%     57.65% # Class of committed instruction
system.cpu0.commit.op_class_0::SimdFloatDiv            0      0.00%     57.65% # Class of committed instruction
system.cpu0.commit.op_class_0::SimdFloatMisc            0      0.00%     57.65% # Class of committed instruction
system.cpu0.commit.op_class_0::SimdFloatMult            0      0.00%     57.65% # Class of committed instruction
system.cpu0.commit.op_class_0::SimdFloatMultAcc            0      0.00%     57.65% # Class of committed instruction
system.cpu0.commit.op_class_0::SimdFloatSqrt            0      0.00%     57.65% # Class of committed instruction
system.cpu0.commit.op_class_0::SimdReduceAdd            0      0.00%     57.65% # Class of committed instruction
system.cpu0.commit.op_class_0::SimdReduceAlu            0      0.00%     57.65% # Class of committed instruction
system.cpu0.commit.op_class_0::SimdReduceCmp            0      0.00%     57.65% # Class of committed instruction
system.cpu0.commit.op_class_0::SimdFloatReduceAdd            0      0.00%     57.65% # Class of committed instruction
system.cpu0.commit.op_class_0::SimdFloatReduceCmp            0      0.00%     57.65% # Class of committed instruction
system.cpu0.commit.op_class_0::SimdAes              0      0.00%     57.65% # Class of committed instruction
system.cpu0.commit.op_class_0::SimdAesMix            0      0.00%     57.65% # Class of committed instruction
system.cpu0.commit.op_class_0::SimdSha1Hash            0      0.00%     57.65% # Class of committed instruction
system.cpu0.commit.op_class_0::SimdSha1Hash2            0      0.00%     57.65% # Class of committed instruction
system.cpu0.commit.op_class_0::SimdSha256Hash            0      0.00%     57.65% # Class of committed instruction
system.cpu0.commit.op_class_0::SimdSha256Hash2            0      0.00%     57.65% # Class of committed instruction
system.cpu0.commit.op_class_0::SimdShaSigma2            0      0.00%     57.65% # Class of committed instruction
system.cpu0.commit.op_class_0::SimdShaSigma3            0      0.00%     57.65% # Class of committed instruction
system.cpu0.commit.op_class_0::SimdPredAlu            0      0.00%     57.65% # Class of committed instruction
system.cpu0.commit.op_class_0::MemRead      407271752     30.89%     88.53% # Class of committed instruction
system.cpu0.commit.op_class_0::MemWrite     151184400     11.47%    100.00% # Class of committed instruction
system.cpu0.commit.op_class_0::FloatMemRead            8      0.00%    100.00% # Class of committed instruction
system.cpu0.commit.op_class_0::FloatMemWrite           16      0.00%    100.00% # Class of committed instruction
system.cpu0.commit.op_class_0::IprAccess            0      0.00%    100.00% # Class of committed instruction
system.cpu0.commit.op_class_0::InstPrefetch            0      0.00%    100.00% # Class of committed instruction
system.cpu0.commit.op_class_0::total       1318655807                       # Class of committed instruction
system.cpu0.commit.refs                     558456176                       # Number of memory references committed
system.cpu0.commit.swp_count                        0                       # Number of s/w prefetches committed
system.cpu0.commit.vec_insts                        0                       # Number of committed Vector instructions.
system.cpu0.committedInsts                 1316552234                       # Number of Instructions Simulated
system.cpu0.committedOps                   1318655807                       # Number of Ops (including micro ops) Simulated
system.cpu0.cpi                              1.945369                       # CPI: Cycles Per Instruction
system.cpu0.cpi_total                        1.945369                       # CPI: Total CPI of All Threads
system.cpu0.decode.BlockedCycles            448479029                       # Number of cycles decode is blocked
system.cpu0.decode.BranchMispred             13758565                       # Number of times decode detected a branch misprediction
system.cpu0.decode.BranchResolved           186198973                       # Number of times decode resolved a branch
system.cpu0.decode.DecodedInsts            1434592900                       # Number of instructions handled by decode
system.cpu0.decode.IdleCycles               926576781                       # Number of cycles decode is idle
system.cpu0.decode.RunCycles                991355803                       # Number of cycles decode is running
system.cpu0.decode.SquashCycles              14607806                       # Number of cycles decode is squashing
system.cpu0.decode.SquashedInsts             14550744                       # Number of squashed instructions handled by decode
system.cpu0.decode.UnblockCycles              6296745                       # Number of cycles decode is unblocking
system.cpu0.dtb.accesses                            0                       # DTB accesses
system.cpu0.dtb.hits                                0                       # DTB hits
system.cpu0.dtb.misses                              0                       # DTB misses
system.cpu0.dtb.read_accesses                       0                       # DTB read accesses
system.cpu0.dtb.read_hits                           0                       # DTB read hits
system.cpu0.dtb.read_misses                         0                       # DTB read misses
system.cpu0.dtb.write_accesses                      0                       # DTB write accesses
system.cpu0.dtb.write_hits                          0                       # DTB write hits
system.cpu0.dtb.write_misses                        0                       # DTB write misses
system.cpu0.fetch.Branches                  354941357                       # Number of branches that fetch encountered
system.cpu0.fetch.CacheLines                244825180                       # Number of cache lines fetched
system.cpu0.fetch.Cycles                   1448817202                       # Number of cycles fetch has run and was not squashing or blocked
system.cpu0.fetch.IcacheSquashes              6586544                       # Number of outstanding Icache misses that were squashed
system.cpu0.fetch.IcacheWaitRetryStallCycles           85                       # Number of stall cycles due to full MSHR
system.cpu0.fetch.Insts                    1465252414                       # Number of instructions fetch has processed
system.cpu0.fetch.MiscStallCycles                  47                       # Number of cycles fetch has spent waiting on interrupts, or bad addresses, or out of MSHRs
system.cpu0.fetch.PendingTrapStallCycles          145                       # Number of stall cycles due to pending traps
system.cpu0.fetch.SquashCycles               56697698                       # Number of cycles fetch has spent squashing
system.cpu0.fetch.branchRate                 0.138585                       # Number of branch fetches per cycle
system.cpu0.fetch.icacheStallCycles         910149836                       # Number of cycles fetch is stalled on an Icache miss
system.cpu0.fetch.predictedBranches         212062696                       # Number of branches that fetch has predicted taken
system.cpu0.fetch.rate                       0.572100                       # Number of inst fetches per cycle
system.cpu0.fetch.rateDist::samples        2387316164                       # Number of instructions fetched each cycle (Total)
system.cpu0.fetch.rateDist::mean             0.614647                       # Number of instructions fetched each cycle (Total)
system.cpu0.fetch.rateDist::stdev            0.897119                       # Number of instructions fetched each cycle (Total)
system.cpu0.fetch.rateDist::underflows              0      0.00%      0.00% # Number of instructions fetched each cycle (Total)
system.cpu0.fetch.rateDist::0              1347794582     56.46%     56.46% # Number of instructions fetched each cycle (Total)
system.cpu0.fetch.rateDist::1               778689102     32.62%     89.07% # Number of instructions fetched each cycle (Total)
system.cpu0.fetch.rateDist::2               137300065      5.75%     94.83% # Number of instructions fetched each cycle (Total)
system.cpu0.fetch.rateDist::3               100440258      4.21%     99.03% # Number of instructions fetched each cycle (Total)
system.cpu0.fetch.rateDist::4                13579363      0.57%     99.60% # Number of instructions fetched each cycle (Total)
system.cpu0.fetch.rateDist::5                 4953439      0.21%     99.81% # Number of instructions fetched each cycle (Total)
system.cpu0.fetch.rateDist::6                  355889      0.01%     99.82% # Number of instructions fetched each cycle (Total)
system.cpu0.fetch.rateDist::7                 2101301      0.09%     99.91% # Number of instructions fetched each cycle (Total)
system.cpu0.fetch.rateDist::8                 2102165      0.09%    100.00% # Number of instructions fetched each cycle (Total)
system.cpu0.fetch.rateDist::overflows               0      0.00%    100.00% # Number of instructions fetched each cycle (Total)
system.cpu0.fetch.rateDist::min_value               0                       # Number of instructions fetched each cycle (Total)
system.cpu0.fetch.rateDist::max_value               8                       # Number of instructions fetched each cycle (Total)
system.cpu0.fetch.rateDist::total          2387316164                       # Number of instructions fetched each cycle (Total)
system.cpu0.fp_regfile_reads                       40                       # number of floating regfile reads
system.cpu0.fp_regfile_writes                      22                       # number of floating regfile writes
system.cpu0.idleCycles                      173864126                       # Total number of cycles that the CPU has spent unscheduled due to idling
system.cpu0.iew.branchMispredicts            14700023                       # Number of branch mispredicts detected at execute
system.cpu0.iew.exec_branches               335817455                       # Number of branches executed
system.cpu0.iew.exec_nop                            0                       # number of nop insts executed
system.cpu0.iew.exec_rate                    0.540057                       # Inst execution rate
system.cpu0.iew.exec_refs                   603519933                       # number of memory reference insts executed
system.cpu0.iew.exec_stores                 155521677                       # Number of stores executed
system.cpu0.iew.exec_swp                            0                       # number of swp insts executed
system.cpu0.iew.iewBlockCycles              367468408                       # Number of cycles IEW is blocking
system.cpu0.iew.iewDispLoadInsts            447290553                       # Number of dispatched load instructions
system.cpu0.iew.iewDispNonSpecInsts           2106630                       # Number of dispatched non-speculative instructions
system.cpu0.iew.iewDispSquashedInsts          8943640                       # Number of squashed instructions skipped by dispatch
system.cpu0.iew.iewDispStoreInsts           157056096                       # Number of dispatched store instructions
system.cpu0.iew.iewDispatchedInsts         1397615654                       # Number of instructions dispatched to IQ
system.cpu0.iew.iewExecLoadInsts            447998256                       # Number of load instructions executed
system.cpu0.iew.iewExecSquashedInsts         11063075                       # Number of squashed instructions skipped in execute
system.cpu0.iew.iewExecutedInsts           1383183695                       # Number of executed instructions
system.cpu0.iew.iewIQFullEvents               1629636                       # Number of times the IQ has become full, causing a stall
system.cpu0.iew.iewIdleCycles                       0                       # Number of cycles IEW is idle
system.cpu0.iew.iewLSQFullEvents              9726818                       # Number of times the LSQ has become full, causing a stall
system.cpu0.iew.iewSquashCycles              14607806                       # Number of cycles IEW is squashing
system.cpu0.iew.iewUnblockCycles             14107705                       # Number of cycles IEW is unblocking
system.cpu0.iew.lsq.thread0.blockedLoads            0                       # Number of blocked loads due to partial load-store forwarding
system.cpu0.iew.lsq.thread0.cacheBlocked       170874                       # Number of times an access to memory failed due to the cache being blocked
system.cpu0.iew.lsq.thread0.forwLoads        24798846                       # Number of loads that had data forwarded from stores
system.cpu0.iew.lsq.thread0.ignoredResponses        51470                       # Number of memory responses ignored because the instruction is squashed
system.cpu0.iew.lsq.thread0.invAddrLoads            0                       # Number of loads ignored due to an invalid address
system.cpu0.iew.lsq.thread0.invAddrSwpfs            0                       # Number of software prefetches ignored due to an invalid address
system.cpu0.iew.lsq.thread0.memOrderViolation         8298                       # Number of memory ordering violations
system.cpu0.iew.lsq.thread0.rescheduledLoads      4511325                       # Number of loads that were rescheduled
system.cpu0.iew.lsq.thread0.squashedLoads     42119082                       # Number of loads squashed
system.cpu0.iew.lsq.thread0.squashedStores      3771390                       # Number of stores squashed
system.cpu0.iew.memOrderViolationEvents          8298                       # Number of memory order violations
system.cpu0.iew.predictedNotTakenIncorrect       738107                       # Number of branches that were predicted not taken incorrectly
system.cpu0.iew.predictedTakenIncorrect      13961916                       # Number of branches that were predicted taken incorrectly
system.cpu0.iew.wb_consumers                628978005                       # num instructions consuming a value
system.cpu0.iew.wb_count                   1368604325                       # cumulative count of insts written-back
system.cpu0.iew.wb_fanout                    0.832891                       # average fanout of values written-back
system.cpu0.iew.wb_producers                523870407                       # num instructions producing a value
system.cpu0.iew.wb_rate                      0.534365                       # insts written-back per cycle
system.cpu0.iew.wb_sent                    1368697967                       # cumulative count of insts sent to commit
system.cpu0.int_regfile_reads              1694735679                       # number of integer regfile reads
system.cpu0.int_regfile_writes              887131035                       # number of integer regfile writes
system.cpu0.ipc                              0.514041                       # IPC: Instructions Per Cycle
system.cpu0.ipc_total                        0.514041                       # IPC: Total IPC of All Threads
system.cpu0.iq.FU_type_0::No_OpClass          4205626      0.30%      0.30% # Type of FU issued
system.cpu0.iq.FU_type_0::IntAlu            769409927     55.18%     55.49% # Type of FU issued
system.cpu0.iq.FU_type_0::IntMult            11847194      0.85%     56.34% # Type of FU issued
system.cpu0.iq.FU_type_0::IntDiv              2100407      0.15%     56.49% # Type of FU issued
system.cpu0.iq.FU_type_0::FloatAdd                  0      0.00%     56.49% # Type of FU issued
system.cpu0.iq.FU_type_0::FloatCmp                  4      0.00%     56.49% # Type of FU issued
system.cpu0.iq.FU_type_0::FloatCvt                 12      0.00%     56.49% # Type of FU issued
system.cpu0.iq.FU_type_0::FloatMult                 0      0.00%     56.49% # Type of FU issued
system.cpu0.iq.FU_type_0::FloatMultAcc              0      0.00%     56.49% # Type of FU issued
system.cpu0.iq.FU_type_0::FloatDiv                  2      0.00%     56.49% # Type of FU issued
system.cpu0.iq.FU_type_0::FloatMisc                 4      0.00%     56.49% # Type of FU issued
system.cpu0.iq.FU_type_0::FloatSqrt                 0      0.00%     56.49% # Type of FU issued
system.cpu0.iq.FU_type_0::SimdAdd                   0      0.00%     56.49% # Type of FU issued
system.cpu0.iq.FU_type_0::SimdAddAcc                0      0.00%     56.49% # Type of FU issued
system.cpu0.iq.FU_type_0::SimdAlu                   0      0.00%     56.49% # Type of FU issued
system.cpu0.iq.FU_type_0::SimdCmp                   0      0.00%     56.49% # Type of FU issued
system.cpu0.iq.FU_type_0::SimdCvt                   0      0.00%     56.49% # Type of FU issued
system.cpu0.iq.FU_type_0::SimdMisc                  0      0.00%     56.49% # Type of FU issued
system.cpu0.iq.FU_type_0::SimdMult                  0      0.00%     56.49% # Type of FU issued
system.cpu0.iq.FU_type_0::SimdMultAcc               0      0.00%     56.49% # Type of FU issued
system.cpu0.iq.FU_type_0::SimdShift                 0      0.00%     56.49% # Type of FU issued
system.cpu0.iq.FU_type_0::SimdShiftAcc              0      0.00%     56.49% # Type of FU issued
system.cpu0.iq.FU_type_0::SimdDiv                   0      0.00%     56.49% # Type of FU issued
system.cpu0.iq.FU_type_0::SimdSqrt                  0      0.00%     56.49% # Type of FU issued
system.cpu0.iq.FU_type_0::SimdFloatAdd              0      0.00%     56.49% # Type of FU issued
system.cpu0.iq.FU_type_0::SimdFloatAlu              0      0.00%     56.49% # Type of FU issued
system.cpu0.iq.FU_type_0::SimdFloatCmp              0      0.00%     56.49% # Type of FU issued
system.cpu0.iq.FU_type_0::SimdFloatCvt              0      0.00%     56.49% # Type of FU issued
system.cpu0.iq.FU_type_0::SimdFloatDiv              0      0.00%     56.49% # Type of FU issued
system.cpu0.iq.FU_type_0::SimdFloatMisc             0      0.00%     56.49% # Type of FU issued
system.cpu0.iq.FU_type_0::SimdFloatMult             0      0.00%     56.49% # Type of FU issued
system.cpu0.iq.FU_type_0::SimdFloatMultAcc            0      0.00%     56.49% # Type of FU issued
system.cpu0.iq.FU_type_0::SimdFloatSqrt             0      0.00%     56.49% # Type of FU issued
system.cpu0.iq.FU_type_0::SimdReduceAdd             0      0.00%     56.49% # Type of FU issued
system.cpu0.iq.FU_type_0::SimdReduceAlu             0      0.00%     56.49% # Type of FU issued
system.cpu0.iq.FU_type_0::SimdReduceCmp             0      0.00%     56.49% # Type of FU issued
system.cpu0.iq.FU_type_0::SimdFloatReduceAdd            0      0.00%     56.49% # Type of FU issued
system.cpu0.iq.FU_type_0::SimdFloatReduceCmp            0      0.00%     56.49% # Type of FU issued
system.cpu0.iq.FU_type_0::SimdAes                   0      0.00%     56.49% # Type of FU issued
system.cpu0.iq.FU_type_0::SimdAesMix                0      0.00%     56.49% # Type of FU issued
system.cpu0.iq.FU_type_0::SimdSha1Hash              0      0.00%     56.49% # Type of FU issued
system.cpu0.iq.FU_type_0::SimdSha1Hash2             0      0.00%     56.49% # Type of FU issued
system.cpu0.iq.FU_type_0::SimdSha256Hash            0      0.00%     56.49% # Type of FU issued
system.cpu0.iq.FU_type_0::SimdSha256Hash2            0      0.00%     56.49% # Type of FU issued
system.cpu0.iq.FU_type_0::SimdShaSigma2             0      0.00%     56.49% # Type of FU issued
system.cpu0.iq.FU_type_0::SimdShaSigma3             0      0.00%     56.49% # Type of FU issued
system.cpu0.iq.FU_type_0::SimdPredAlu               0      0.00%     56.49% # Type of FU issued
system.cpu0.iq.FU_type_0::MemRead           452181247     32.43%     88.92% # Type of FU issued
system.cpu0.iq.FU_type_0::MemWrite          154502325     11.08%    100.00% # Type of FU issued
system.cpu0.iq.FU_type_0::FloatMemRead              8      0.00%    100.00% # Type of FU issued
system.cpu0.iq.FU_type_0::FloatMemWrite            16      0.00%    100.00% # Type of FU issued
system.cpu0.iq.FU_type_0::IprAccess                 0      0.00%    100.00% # Type of FU issued
system.cpu0.iq.FU_type_0::InstPrefetch              0      0.00%    100.00% # Type of FU issued
system.cpu0.iq.FU_type_0::total            1394246772                       # Type of FU issued
system.cpu0.iq.fp_alu_accesses                     49                       # Number of floating point alu accesses
system.cpu0.iq.fp_inst_queue_reads                 95                       # Number of floating instruction queue reads
system.cpu0.iq.fp_inst_queue_wakeup_accesses           46                       # Number of floating instruction queue wakeup accesses
system.cpu0.iq.fp_inst_queue_writes                46                       # Number of floating instruction queue writes
system.cpu0.iq.fu_busy_cnt                    3470981                       # FU busy when requested
system.cpu0.iq.fu_busy_rate                  0.002490                       # FU busy rate (busy events/executed inst)
system.cpu0.iq.fu_full::No_OpClass                  0      0.00%      0.00% # attempts to use FU when none available
system.cpu0.iq.fu_full::IntAlu                1016074     29.27%     29.27% # attempts to use FU when none available
system.cpu0.iq.fu_full::IntMult                     0      0.00%     29.27% # attempts to use FU when none available
system.cpu0.iq.fu_full::IntDiv                      0      0.00%     29.27% # attempts to use FU when none available
system.cpu0.iq.fu_full::FloatAdd                    0      0.00%     29.27% # attempts to use FU when none available
system.cpu0.iq.fu_full::FloatCmp                    0      0.00%     29.27% # attempts to use FU when none available
system.cpu0.iq.fu_full::FloatCvt                    0      0.00%     29.27% # attempts to use FU when none available
system.cpu0.iq.fu_full::FloatMult                   0      0.00%     29.27% # attempts to use FU when none available
system.cpu0.iq.fu_full::FloatMultAcc                0      0.00%     29.27% # attempts to use FU when none available
system.cpu0.iq.fu_full::FloatDiv                    0      0.00%     29.27% # attempts to use FU when none available
system.cpu0.iq.fu_full::FloatMisc                   0      0.00%     29.27% # attempts to use FU when none available
system.cpu0.iq.fu_full::FloatSqrt                   0      0.00%     29.27% # attempts to use FU when none available
system.cpu0.iq.fu_full::SimdAdd                     0      0.00%     29.27% # attempts to use FU when none available
system.cpu0.iq.fu_full::SimdAddAcc                  0      0.00%     29.27% # attempts to use FU when none available
system.cpu0.iq.fu_full::SimdAlu                     0      0.00%     29.27% # attempts to use FU when none available
system.cpu0.iq.fu_full::SimdCmp                     0      0.00%     29.27% # attempts to use FU when none available
system.cpu0.iq.fu_full::SimdCvt                     0      0.00%     29.27% # attempts to use FU when none available
system.cpu0.iq.fu_full::SimdMisc                    0      0.00%     29.27% # attempts to use FU when none available
system.cpu0.iq.fu_full::SimdMult                    0      0.00%     29.27% # attempts to use FU when none available
system.cpu0.iq.fu_full::SimdMultAcc                 0      0.00%     29.27% # attempts to use FU when none available
system.cpu0.iq.fu_full::SimdShift                   0      0.00%     29.27% # attempts to use FU when none available
system.cpu0.iq.fu_full::SimdShiftAcc                0      0.00%     29.27% # attempts to use FU when none available
system.cpu0.iq.fu_full::SimdDiv                     0      0.00%     29.27% # attempts to use FU when none available
system.cpu0.iq.fu_full::SimdSqrt                    0      0.00%     29.27% # attempts to use FU when none available
system.cpu0.iq.fu_full::SimdFloatAdd                0      0.00%     29.27% # attempts to use FU when none available
system.cpu0.iq.fu_full::SimdFloatAlu                0      0.00%     29.27% # attempts to use FU when none available
system.cpu0.iq.fu_full::SimdFloatCmp                0      0.00%     29.27% # attempts to use FU when none available
system.cpu0.iq.fu_full::SimdFloatCvt                0      0.00%     29.27% # attempts to use FU when none available
system.cpu0.iq.fu_full::SimdFloatDiv                0      0.00%     29.27% # attempts to use FU when none available
system.cpu0.iq.fu_full::SimdFloatMisc               0      0.00%     29.27% # attempts to use FU when none available
system.cpu0.iq.fu_full::SimdFloatMult               0      0.00%     29.27% # attempts to use FU when none available
system.cpu0.iq.fu_full::SimdFloatMultAcc            0      0.00%     29.27% # attempts to use FU when none available
system.cpu0.iq.fu_full::SimdFloatSqrt               0      0.00%     29.27% # attempts to use FU when none available
system.cpu0.iq.fu_full::SimdReduceAdd               0      0.00%     29.27% # attempts to use FU when none available
system.cpu0.iq.fu_full::SimdReduceAlu               0      0.00%     29.27% # attempts to use FU when none available
system.cpu0.iq.fu_full::SimdReduceCmp               0      0.00%     29.27% # attempts to use FU when none available
system.cpu0.iq.fu_full::SimdFloatReduceAdd            0      0.00%     29.27% # attempts to use FU when none available
system.cpu0.iq.fu_full::SimdFloatReduceCmp            0      0.00%     29.27% # attempts to use FU when none available
system.cpu0.iq.fu_full::SimdAes                     0      0.00%     29.27% # attempts to use FU when none available
system.cpu0.iq.fu_full::SimdAesMix                  0      0.00%     29.27% # attempts to use FU when none available
system.cpu0.iq.fu_full::SimdSha1Hash                0      0.00%     29.27% # attempts to use FU when none available
system.cpu0.iq.fu_full::SimdSha1Hash2               0      0.00%     29.27% # attempts to use FU when none available
system.cpu0.iq.fu_full::SimdSha256Hash              0      0.00%     29.27% # attempts to use FU when none available
system.cpu0.iq.fu_full::SimdSha256Hash2             0      0.00%     29.27% # attempts to use FU when none available
system.cpu0.iq.fu_full::SimdShaSigma2               0      0.00%     29.27% # attempts to use FU when none available
system.cpu0.iq.fu_full::SimdShaSigma3               0      0.00%     29.27% # attempts to use FU when none available
system.cpu0.iq.fu_full::SimdPredAlu                 0      0.00%     29.27% # attempts to use FU when none available
system.cpu0.iq.fu_full::MemRead               1975532     56.92%     86.19% # attempts to use FU when none available
system.cpu0.iq.fu_full::MemWrite               479372     13.81%    100.00% # attempts to use FU when none available
system.cpu0.iq.fu_full::FloatMemRead                0      0.00%    100.00% # attempts to use FU when none available
system.cpu0.iq.fu_full::FloatMemWrite               3      0.00%    100.00% # attempts to use FU when none available
system.cpu0.iq.fu_full::IprAccess                   0      0.00%    100.00% # attempts to use FU when none available
system.cpu0.iq.fu_full::InstPrefetch                0      0.00%    100.00% # attempts to use FU when none available
system.cpu0.iq.int_alu_accesses            1393512078                       # Number of integer alu accesses
system.cpu0.iq.int_inst_queue_reads        5179481516                       # Number of integer instruction queue reads
system.cpu0.iq.int_inst_queue_wakeup_accesses   1368604279                       # Number of integer instruction queue wakeup accesses
system.cpu0.iq.int_inst_queue_writes       1476583336                       # Number of integer instruction queue writes
system.cpu0.iq.iqInstsAdded                1391305064                       # Number of instructions added to the IQ (excludes non-spec)
system.cpu0.iq.iqInstsIssued               1394246772                       # Number of instructions issued
system.cpu0.iq.iqNonSpecInstsAdded            6310590                       # Number of non-speculative instructions added to the IQ
system.cpu0.iq.iqSquashedInstsExamined       78959840                       # Number of squashed instructions iterated over during squash; mainly for profiling
system.cpu0.iq.iqSquashedInstsIssued           200924                       # Number of squashed instructions issued
system.cpu0.iq.iqSquashedNonSpecRemoved           838                       # Number of squashed non-spec instructions that were removed
system.cpu0.iq.iqSquashedOperandsExamined     25733682                       # Number of squashed operands that are examined and possibly removed from graph
system.cpu0.iq.issued_per_cycle::samples   2387316164                       # Number of insts issued each cycle
system.cpu0.iq.issued_per_cycle::mean        0.584023                       # Number of insts issued each cycle
system.cpu0.iq.issued_per_cycle::stdev       0.841657                       # Number of insts issued each cycle
system.cpu0.iq.issued_per_cycle::underflows            0      0.00%      0.00% # Number of insts issued each cycle
system.cpu0.iq.issued_per_cycle::0         1395267436     58.45%     58.45% # Number of insts issued each cycle
system.cpu0.iq.issued_per_cycle::1          696924056     29.19%     87.64% # Number of insts issued each cycle
system.cpu0.iq.issued_per_cycle::2          216418014      9.07%     96.70% # Number of insts issued each cycle
system.cpu0.iq.issued_per_cycle::3           61183154      2.56%     99.27% # Number of insts issued each cycle
system.cpu0.iq.issued_per_cycle::4           11954258      0.50%     99.77% # Number of insts issued each cycle
system.cpu0.iq.issued_per_cycle::5            1889883      0.08%     99.85% # Number of insts issued each cycle
system.cpu0.iq.issued_per_cycle::6            2319607      0.10%     99.94% # Number of insts issued each cycle
system.cpu0.iq.issued_per_cycle::7            1124911      0.05%     99.99% # Number of insts issued each cycle
system.cpu0.iq.issued_per_cycle::8             234845      0.01%    100.00% # Number of insts issued each cycle
system.cpu0.iq.issued_per_cycle::overflows            0      0.00%    100.00% # Number of insts issued each cycle
system.cpu0.iq.issued_per_cycle::min_value            0                       # Number of insts issued each cycle
system.cpu0.iq.issued_per_cycle::max_value            8                       # Number of insts issued each cycle
system.cpu0.iq.issued_per_cycle::total     2387316164                       # Number of insts issued each cycle
system.cpu0.iq.rate                          0.544377                       # Inst issue rate
system.cpu0.iq.vec_alu_accesses                     0                       # Number of vector alu accesses
system.cpu0.iq.vec_inst_queue_reads                 0                       # Number of vector instruction queue reads
system.cpu0.iq.vec_inst_queue_wakeup_accesses            0                       # Number of vector instruction queue wakeup accesses
system.cpu0.iq.vec_inst_queue_writes                0                       # Number of vector instruction queue writes
system.cpu0.itb.accesses                            0                       # DTB accesses
system.cpu0.itb.hits                                0                       # DTB hits
system.cpu0.itb.misses                              0                       # DTB misses
system.cpu0.itb.read_accesses                       0                       # DTB read accesses
system.cpu0.itb.read_hits                           0                       # DTB read hits
system.cpu0.itb.read_misses                         0                       # DTB read misses
system.cpu0.itb.write_accesses                      0                       # DTB write accesses
system.cpu0.itb.write_hits                          0                       # DTB write hits
system.cpu0.itb.write_misses                        0                       # DTB write misses
system.cpu0.memDep0.conflictingLoads         19686594                       # Number of conflicting loads.
system.cpu0.memDep0.conflictingStores         1431490                       # Number of conflicting stores.
system.cpu0.memDep0.insertedLoads           447290553                       # Number of loads inserted to the mem dependence unit.
system.cpu0.memDep0.insertedStores          157056096                       # Number of stores inserted to the mem dependence unit.
system.cpu0.misc_regfile_reads                   1893                       # number of misc regfile reads
system.cpu0.misc_regfile_writes                    22                       # number of misc regfile writes
system.cpu0.numCycles                      2561180290                       # number of cpu cycles simulated
system.cpu0.numWorkItemsCompleted                   0                       # number of work items this cpu completed
system.cpu0.numWorkItemsStarted                     0                       # number of work items this cpu started
system.cpu0.quiesceCycles                     6503243                       # Total number of cycles that CPU has spent quiesced or waiting for an interrupt
system.cpu0.rename.BlockCycles              396944257                       # Number of cycles rename is blocking
system.cpu0.rename.CommittedMaps            845198520                       # Number of HB maps that are committed
system.cpu0.rename.IQFullEvents              14583105                       # Number of times rename has blocked due to IQ full
system.cpu0.rename.IdleCycles               943374326                       # Number of cycles rename is idle
system.cpu0.rename.LQFullEvents              13389458                       # Number of times rename has blocked due to LQ full
system.cpu0.rename.ROBFullEvents                22361                       # Number of times rename has blocked due to ROB full
system.cpu0.rename.RenameLookups           1738133620                       # Number of register rename lookups that rename has made
system.cpu0.rename.RenamedInsts            1422013295                       # Number of instructions processed by rename
system.cpu0.rename.RenamedOperands          933754915                       # Number of destination operands rename has renamed
system.cpu0.rename.RunCycles                979481240                       # Number of cycles rename is running
system.cpu0.rename.SQFullEvents              23868395                       # Number of times rename has blocked due to SQ full
system.cpu0.rename.SquashCycles              14607806                       # Number of cycles rename is squashing
system.cpu0.rename.UnblockCycles             52739253                       # Number of cycles rename is unblocking
system.cpu0.rename.UndoneMaps                88556384                       # Number of HB maps that are undone due to squashing
system.cpu0.rename.fp_rename_lookups               40                       # Number of floating rename lookups
system.cpu0.rename.int_rename_lookups      1738133580                       # Number of integer rename lookups
system.cpu0.rename.serializeStallCycles        169282                       # count of cycles rename stalled for serializing inst
system.cpu0.rename.serializingInsts              5874                       # count of serializing insts renamed
system.cpu0.rename.skidInsts                 32039574                       # count of insts added to the skid buffer
system.cpu0.rename.tempSerializingInsts          5872                       # count of temporary serializing insts renamed
system.cpu0.rob.rob_reads                  3724148408                       # The number of ROB reads
system.cpu0.rob.rob_writes                 2818364839                       # The number of ROB writes
system.cpu0.timesIdled                       25524135                       # Number of times that the entire CPU went into an idle state and unscheduled itself
system.cpu0.workload.numSyscalls                 1860                       # Number of system calls
system.cpu1.branchPred.BTBCorrect                   0                       # Number of correct BTB predictions (this stat may not work properly.
system.cpu1.branchPred.BTBHitPct            90.594789                       # BTB Hit Percentage
system.cpu1.branchPred.BTBHits               20798884                       # Number of BTB hits
system.cpu1.branchPred.BTBLookups            22958146                       # Number of BTB lookups
system.cpu1.branchPred.RASInCorrect                 0                       # Number of incorrect RAS predictions.
system.cpu1.branchPred.condIncorrect          2799203                       # Number of conditional branches incorrect
system.cpu1.branchPred.condPredicted         30882440                       # Number of conditional branches predicted
system.cpu1.branchPred.indirectHits           1072806                       # Number of indirect target hits.
system.cpu1.branchPred.indirectLookups        1095979                       # Number of indirect predictor lookups.
system.cpu1.branchPred.indirectMisses           23173                       # Number of indirect misses.
system.cpu1.branchPred.lookups               35470400                       # Number of BP lookups
system.cpu1.branchPred.usedRAS                      0                       # Number of times the RAS was used to get a target.
system.cpu1.branchPredindirectMispredicted        47943                       # Number of mispredicted indirect branches.
system.cpu1.commit.amos                       2100000                       # Number of atomic instructions committed
system.cpu1.commit.branchMispredicts          1990084                       # The number of times a branch was mispredicted
system.cpu1.commit.branches                  28118943                       # Number of branches committed
system.cpu1.commit.bw_lim_events              3823804                       # number cycles where commit BW limit reached
system.cpu1.commit.commitNonSpecStalls        6300665                       # The number of times commit has been forced to stall to communicate backwards
system.cpu1.commit.commitSquashedInsts       16201749                       # The number of squashed insts skipped by commit
system.cpu1.commit.committedInsts           120064139                       # Number of instructions committed
system.cpu1.commit.committedOps             122164314                       # Number of ops (including micro ops) committed
system.cpu1.commit.committed_per_cycle::samples    466788556                       # Number of insts commited each cycle
system.cpu1.commit.committed_per_cycle::mean     0.261712                       # Number of insts commited each cycle
system.cpu1.commit.committed_per_cycle::stdev     1.019532                       # Number of insts commited each cycle
system.cpu1.commit.committed_per_cycle::underflows            0      0.00%      0.00% # Number of insts commited each cycle
system.cpu1.commit.committed_per_cycle::0    416821757     89.30%     89.30% # Number of insts commited each cycle
system.cpu1.commit.committed_per_cycle::1     25046336      5.37%     94.66% # Number of insts commited each cycle
system.cpu1.commit.committed_per_cycle::2      8171407      1.75%     96.41% # Number of insts commited each cycle
system.cpu1.commit.committed_per_cycle::3      7615526      1.63%     98.04% # Number of insts commited each cycle
system.cpu1.commit.committed_per_cycle::4      2029533      0.43%     98.48% # Number of insts commited each cycle
system.cpu1.commit.committed_per_cycle::5       806597      0.17%     98.65% # Number of insts commited each cycle
system.cpu1.commit.committed_per_cycle::6      2128135      0.46%     99.11% # Number of insts commited each cycle
system.cpu1.commit.committed_per_cycle::7       345461      0.07%     99.18% # Number of insts commited each cycle
system.cpu1.commit.committed_per_cycle::8      3823804      0.82%    100.00% # Number of insts commited each cycle
system.cpu1.commit.committed_per_cycle::overflows            0      0.00%    100.00% # Number of insts commited each cycle
system.cpu1.commit.committed_per_cycle::min_value            0                       # Number of insts commited each cycle
system.cpu1.commit.committed_per_cycle::max_value            8                       # Number of insts commited each cycle
system.cpu1.commit.committed_per_cycle::total    466788556                       # Number of insts commited each cycle
system.cpu1.commit.fp_insts                        12                       # Number of committed floating point instructions.
system.cpu1.commit.function_calls             1797925                       # Number of function calls committed.
system.cpu1.commit.int_insts                116601467                       # Number of committed integer instructions.
system.cpu1.commit.loads                     30175686                       # Number of loads committed
system.cpu1.commit.membars                    4200119                       # Number of memory barriers committed
system.cpu1.commit.op_class_0::No_OpClass      4200119      3.44%      3.44% # Class of committed instruction
system.cpu1.commit.op_class_0::IntAlu        76666959     62.76%     66.20% # Class of committed instruction
system.cpu1.commit.op_class_0::IntMult             44      0.00%     66.20% # Class of committed instruction
system.cpu1.commit.op_class_0::IntDiv              88      0.00%     66.20% # Class of committed instruction
system.cpu1.commit.op_class_0::FloatAdd             0      0.00%     66.20% # Class of committed instruction
system.cpu1.commit.op_class_0::FloatCmp             0      0.00%     66.20% # Class of committed instruction
system.cpu1.commit.op_class_0::FloatCvt             0      0.00%     66.20% # Class of committed instruction
system.cpu1.commit.op_class_0::FloatMult            0      0.00%     66.20% # Class of committed instruction
system.cpu1.commit.op_class_0::FloatMultAcc            0      0.00%     66.20% # Class of committed instruction
system.cpu1.commit.op_class_0::FloatDiv             0      0.00%     66.20% # Class of committed instruction
system.cpu1.commit.op_class_0::FloatMisc            0      0.00%     66.20% # Class of committed instruction
system.cpu1.commit.op_class_0::FloatSqrt            0      0.00%     66.20% # Class of committed instruction
system.cpu1.commit.op_class_0::SimdAdd              0      0.00%     66.20% # Class of committed instruction
system.cpu1.commit.op_class_0::SimdAddAcc            0      0.00%     66.20% # Class of committed instruction
system.cpu1.commit.op_class_0::SimdAlu              0      0.00%     66.20% # Class of committed instruction
system.cpu1.commit.op_class_0::SimdCmp              0      0.00%     66.20% # Class of committed instruction
system.cpu1.commit.op_class_0::SimdCvt              0      0.00%     66.20% # Class of committed instruction
system.cpu1.commit.op_class_0::SimdMisc             0      0.00%     66.20% # Class of committed instruction
system.cpu1.commit.op_class_0::SimdMult             0      0.00%     66.20% # Class of committed instruction
system.cpu1.commit.op_class_0::SimdMultAcc            0      0.00%     66.20% # Class of committed instruction
system.cpu1.commit.op_class_0::SimdShift            0      0.00%     66.20% # Class of committed instruction
system.cpu1.commit.op_class_0::SimdShiftAcc            0      0.00%     66.20% # Class of committed instruction
system.cpu1.commit.op_class_0::SimdDiv              0      0.00%     66.20% # Class of committed instruction
system.cpu1.commit.op_class_0::SimdSqrt             0      0.00%     66.20% # Class of committed instruction
system.cpu1.commit.op_class_0::SimdFloatAdd            0      0.00%     66.20% # Class of committed instruction
system.cpu1.commit.op_class_0::SimdFloatAlu            0      0.00%     66.20% # Class of committed instruction
system.cpu1.commit.op_class_0::SimdFloatCmp            0      0.00%     66.20% # Class of committed instruction
system.cpu1.commit.op_class_0::SimdFloatCvt            0      0.00%     66.20% # Class of committed instruction
system.cpu1.commit.op_class_0::SimdFloatDiv            0      0.00%     66.20% # Class of committed instruction
system.cpu1.commit.op_class_0::SimdFloatMisc            0      0.00%     66.20% # Class of committed instruction
system.cpu1.commit.op_class_0::SimdFloatMult            0      0.00%     66.20% # Class of committed instruction
system.cpu1.commit.op_class_0::SimdFloatMultAcc            0      0.00%     66.20% # Class of committed instruction
system.cpu1.commit.op_class_0::SimdFloatSqrt            0      0.00%     66.20% # Class of committed instruction
system.cpu1.commit.op_class_0::SimdReduceAdd            0      0.00%     66.20% # Class of committed instruction
system.cpu1.commit.op_class_0::SimdReduceAlu            0      0.00%     66.20% # Class of committed instruction
system.cpu1.commit.op_class_0::SimdReduceCmp            0      0.00%     66.20% # Class of committed instruction
system.cpu1.commit.op_class_0::SimdFloatReduceAdd            0      0.00%     66.20% # Class of committed instruction
system.cpu1.commit.op_class_0::SimdFloatReduceCmp            0      0.00%     66.20% # Class of committed instruction
system.cpu1.commit.op_class_0::SimdAes              0      0.00%     66.20% # Class of committed instruction
system.cpu1.commit.op_class_0::SimdAesMix            0      0.00%     66.20% # Class of committed instruction
system.cpu1.commit.op_class_0::SimdSha1Hash            0      0.00%     66.20% # Class of committed instruction
system.cpu1.commit.op_class_0::SimdSha1Hash2            0      0.00%     66.20% # Class of committed instruction
system.cpu1.commit.op_class_0::SimdSha256Hash            0      0.00%     66.20% # Class of committed instruction
system.cpu1.commit.op_class_0::SimdSha256Hash2            0      0.00%     66.20% # Class of committed instruction
system.cpu1.commit.op_class_0::SimdShaSigma2            0      0.00%     66.20% # Class of committed instruction
system.cpu1.commit.op_class_0::SimdShaSigma3            0      0.00%     66.20% # Class of committed instruction
system.cpu1.commit.op_class_0::SimdPredAlu            0      0.00%     66.20% # Class of committed instruction
system.cpu1.commit.op_class_0::MemRead       32275686     26.42%     92.62% # Class of committed instruction
system.cpu1.commit.op_class_0::MemWrite       9021406      7.38%    100.00% # Class of committed instruction
system.cpu1.commit.op_class_0::FloatMemRead            0      0.00%    100.00% # Class of committed instruction
system.cpu1.commit.op_class_0::FloatMemWrite           12      0.00%    100.00% # Class of committed instruction
system.cpu1.commit.op_class_0::IprAccess            0      0.00%    100.00% # Class of committed instruction
system.cpu1.commit.op_class_0::InstPrefetch            0      0.00%    100.00% # Class of committed instruction
system.cpu1.commit.op_class_0::total        122164314                       # Class of committed instruction
system.cpu1.commit.refs                      41297104                       # Number of memory references committed
system.cpu1.commit.swp_count                        0                       # Number of s/w prefetches committed
system.cpu1.commit.vec_insts                        0                       # Number of committed Vector instructions.
system.cpu1.committedInsts                  120064139                       # Number of Instructions Simulated
system.cpu1.committedOps                    122164314                       # Number of Ops (including micro ops) Simulated
system.cpu1.cpi                              3.928306                       # CPI: Cycles Per Instruction
system.cpu1.cpi_total                        3.928306                       # CPI: Total CPI of All Threads
system.cpu1.decode.BlockedCycles            373772047                       # Number of cycles decode is blocked
system.cpu1.decode.BranchMispred               812963                       # Number of times decode detected a branch misprediction
system.cpu1.decode.BranchResolved            19734482                       # Number of times decode resolved a branch
system.cpu1.decode.DecodedInsts             145861501                       # Number of instructions handled by decode
system.cpu1.decode.IdleCycles                22488719                       # Number of cycles decode is idle
system.cpu1.decode.RunCycles                 66847378                       # Number of cycles decode is running
system.cpu1.decode.SquashCycles               1991577                       # Number of cycles decode is squashing
system.cpu1.decode.SquashedInsts              1351807                       # Number of squashed instructions handled by decode
system.cpu1.decode.UnblockCycles              5025082                       # Number of cycles decode is unblocking
system.cpu1.dtb.accesses                            0                       # DTB accesses
system.cpu1.dtb.hits                                0                       # DTB hits
system.cpu1.dtb.misses                              0                       # DTB misses
system.cpu1.dtb.read_accesses                       0                       # DTB read accesses
system.cpu1.dtb.read_hits                           0                       # DTB read hits
system.cpu1.dtb.read_misses                         0                       # DTB read misses
system.cpu1.dtb.write_accesses                      0                       # DTB write accesses
system.cpu1.dtb.write_hits                          0                       # DTB write hits
system.cpu1.dtb.write_misses                        0                       # DTB write misses
system.cpu1.fetch.Branches                   35470400                       # Number of branches that fetch encountered
system.cpu1.fetch.CacheLines                 20837944                       # Number of cache lines fetched
system.cpu1.fetch.Cycles                    444532718                       # Number of cycles fetch has run and was not squashing or blocked
system.cpu1.fetch.IcacheSquashes               409077                       # Number of outstanding Icache misses that were squashed
system.cpu1.fetch.Insts                     151071740                       # Number of instructions fetch has processed
system.cpu1.fetch.MiscStallCycles                   3                       # Number of cycles fetch has spent waiting on interrupts, or bad addresses, or out of MSHRs
system.cpu1.fetch.PendingTrapStallCycles           15                       # Number of stall cycles due to pending traps
system.cpu1.fetch.SquashCycles                5601396                       # Number of cycles fetch has spent squashing
system.cpu1.fetch.branchRate                 0.075205                       # Number of branch fetches per cycle
system.cpu1.fetch.icacheStallCycles          22791369                       # Number of cycles fetch is stalled on an Icache miss
system.cpu1.fetch.predictedBranches          21871690                       # Number of branches that fetch has predicted taken
system.cpu1.fetch.rate                       0.320306                       # Number of inst fetches per cycle
system.cpu1.fetch.rateDist::samples         470124803                       # Number of instructions fetched each cycle (Total)
system.cpu1.fetch.rateDist::mean             0.325812                       # Number of instructions fetched each cycle (Total)
system.cpu1.fetch.rateDist::stdev            0.763991                       # Number of instructions fetched each cycle (Total)
system.cpu1.fetch.rateDist::underflows              0      0.00%      0.00% # Number of instructions fetched each cycle (Total)
system.cpu1.fetch.rateDist::0               373474798     79.44%     79.44% # Number of instructions fetched each cycle (Total)
system.cpu1.fetch.rateDist::1                62342230     13.26%     92.70% # Number of instructions fetched each cycle (Total)
system.cpu1.fetch.rateDist::2                17286498      3.68%     96.38% # Number of instructions fetched each cycle (Total)
system.cpu1.fetch.rateDist::3                13144969      2.80%     99.18% # Number of instructions fetched each cycle (Total)
system.cpu1.fetch.rateDist::4                 2879789      0.61%     99.79% # Number of instructions fetched each cycle (Total)
system.cpu1.fetch.rateDist::5                  676169      0.14%     99.93% # Number of instructions fetched each cycle (Total)
system.cpu1.fetch.rateDist::6                  320243      0.07%    100.00% # Number of instructions fetched each cycle (Total)
system.cpu1.fetch.rateDist::7                       9      0.00%    100.00% # Number of instructions fetched each cycle (Total)
system.cpu1.fetch.rateDist::8                      98      0.00%    100.00% # Number of instructions fetched each cycle (Total)
system.cpu1.fetch.rateDist::overflows               0      0.00%    100.00% # Number of instructions fetched each cycle (Total)
system.cpu1.fetch.rateDist::min_value               0                       # Number of instructions fetched each cycle (Total)
system.cpu1.fetch.rateDist::max_value               8                       # Number of instructions fetched each cycle (Total)
system.cpu1.fetch.rateDist::total           470124803                       # Number of instructions fetched each cycle (Total)
system.cpu1.fp_regfile_reads                       12                       # number of floating regfile reads
system.cpu1.idleCycles                        1523828                       # Total number of cycles that the CPU has spent unscheduled due to idling
system.cpu1.iew.branchMispredicts             2062526                       # Number of branch mispredicts detected at execute
system.cpu1.iew.exec_branches                30547747                       # Number of branches executed
system.cpu1.iew.exec_nop                            0                       # number of nop insts executed
system.cpu1.iew.exec_rate                    0.282588                       # Inst execution rate
system.cpu1.iew.exec_refs                    45373818                       # number of memory reference insts executed
system.cpu1.iew.exec_stores                  11527232                       # Number of stores executed
system.cpu1.iew.exec_swp                            0                       # number of swp insts executed
system.cpu1.iew.iewBlockCycles              310881085                       # Number of cycles IEW is blocking
system.cpu1.iew.iewDispLoadInsts             34380150                       # Number of dispatched load instructions
system.cpu1.iew.iewDispNonSpecInsts           2100671                       # Number of dispatched non-speculative instructions
system.cpu1.iew.iewDispSquashedInsts          2356914                       # Number of squashed instructions skipped by dispatch
system.cpu1.iew.iewDispStoreInsts            11969588                       # Number of dispatched store instructions
system.cpu1.iew.iewDispatchedInsts          138327288                       # Number of instructions dispatched to IQ
system.cpu1.iew.iewExecLoadInsts             33846586                       # Number of load instructions executed
system.cpu1.iew.iewExecSquashedInsts          1892630                       # Number of squashed instructions skipped in execute
system.cpu1.iew.iewExecutedInsts            133282299                       # Number of executed instructions
system.cpu1.iew.iewIQFullEvents               1540424                       # Number of times the IQ has become full, causing a stall
system.cpu1.iew.iewIdleCycles                       0                       # Number of cycles IEW is idle
system.cpu1.iew.iewLSQFullEvents              7336752                       # Number of times the LSQ has become full, causing a stall
system.cpu1.iew.iewSquashCycles               1991577                       # Number of cycles IEW is squashing
system.cpu1.iew.iewUnblockCycles             11444877                       # Number of cycles IEW is unblocking
system.cpu1.iew.lsq.thread0.blockedLoads            0                       # Number of blocked loads due to partial load-store forwarding
system.cpu1.iew.lsq.thread0.cacheBlocked        85858                       # Number of times an access to memory failed due to the cache being blocked
system.cpu1.iew.lsq.thread0.forwLoads          935580                       # Number of loads that had data forwarded from stores
system.cpu1.iew.lsq.thread0.ignoredResponses        46107                       # Number of memory responses ignored because the instruction is squashed
system.cpu1.iew.lsq.thread0.invAddrLoads            0                       # Number of loads ignored due to an invalid address
system.cpu1.iew.lsq.thread0.invAddrSwpfs            0                       # Number of software prefetches ignored due to an invalid address
system.cpu1.iew.lsq.thread0.memOrderViolation         2055                       # Number of memory ordering violations
system.cpu1.iew.lsq.thread0.rescheduledLoads        16420                       # Number of loads that were rescheduled
system.cpu1.iew.lsq.thread0.squashedLoads      4204464                       # Number of loads squashed
system.cpu1.iew.lsq.thread0.squashedStores       848170                       # Number of stores squashed
system.cpu1.iew.memOrderViolationEvents          2055                       # Number of memory order violations
system.cpu1.iew.predictedNotTakenIncorrect       534703                       # Number of branches that were predicted not taken incorrectly
system.cpu1.iew.predictedTakenIncorrect       1527823                       # Number of branches that were predicted taken incorrectly
system.cpu1.iew.wb_consumers                 76818208                       # num instructions consuming a value
system.cpu1.iew.wb_count                    131781665                       # cumulative count of insts written-back
system.cpu1.iew.wb_fanout                    0.844482                       # average fanout of values written-back
system.cpu1.iew.wb_producers                 64871559                       # num instructions producing a value
system.cpu1.iew.wb_rate                      0.279406                       # insts written-back per cycle
system.cpu1.iew.wb_sent                     131847063                       # cumulative count of insts sent to commit
system.cpu1.int_regfile_reads               169094366                       # number of integer regfile reads
system.cpu1.int_regfile_writes               88691233                       # number of integer regfile writes
system.cpu1.ipc                              0.254563                       # IPC: Instructions Per Cycle
system.cpu1.ipc_total                        0.254563                       # IPC: Total IPC of All Threads
system.cpu1.iq.FU_type_0::No_OpClass          4200221      3.11%      3.11% # Type of FU issued
system.cpu1.iq.FU_type_0::IntAlu             85105754     62.96%     66.07% # Type of FU issued
system.cpu1.iq.FU_type_0::IntMult                  48      0.00%     66.07% # Type of FU issued
system.cpu1.iq.FU_type_0::IntDiv                   89      0.00%     66.07% # Type of FU issued
system.cpu1.iq.FU_type_0::FloatAdd                  0      0.00%     66.07% # Type of FU issued
system.cpu1.iq.FU_type_0::FloatCmp                  0      0.00%     66.07% # Type of FU issued
system.cpu1.iq.FU_type_0::FloatCvt                  0      0.00%     66.07% # Type of FU issued
system.cpu1.iq.FU_type_0::FloatMult                 0      0.00%     66.07% # Type of FU issued
system.cpu1.iq.FU_type_0::FloatMultAcc              0      0.00%     66.07% # Type of FU issued
system.cpu1.iq.FU_type_0::FloatDiv                  0      0.00%     66.07% # Type of FU issued
system.cpu1.iq.FU_type_0::FloatMisc                 0      0.00%     66.07% # Type of FU issued
system.cpu1.iq.FU_type_0::FloatSqrt                 0      0.00%     66.07% # Type of FU issued
system.cpu1.iq.FU_type_0::SimdAdd                   0      0.00%     66.07% # Type of FU issued
system.cpu1.iq.FU_type_0::SimdAddAcc                0      0.00%     66.07% # Type of FU issued
system.cpu1.iq.FU_type_0::SimdAlu                   0      0.00%     66.07% # Type of FU issued
system.cpu1.iq.FU_type_0::SimdCmp                   0      0.00%     66.07% # Type of FU issued
system.cpu1.iq.FU_type_0::SimdCvt                   0      0.00%     66.07% # Type of FU issued
system.cpu1.iq.FU_type_0::SimdMisc                  0      0.00%     66.07% # Type of FU issued
system.cpu1.iq.FU_type_0::SimdMult                  0      0.00%     66.07% # Type of FU issued
system.cpu1.iq.FU_type_0::SimdMultAcc               0      0.00%     66.07% # Type of FU issued
system.cpu1.iq.FU_type_0::SimdShift                 0      0.00%     66.07% # Type of FU issued
system.cpu1.iq.FU_type_0::SimdShiftAcc              0      0.00%     66.07% # Type of FU issued
system.cpu1.iq.FU_type_0::SimdDiv                   0      0.00%     66.07% # Type of FU issued
system.cpu1.iq.FU_type_0::SimdSqrt                  0      0.00%     66.07% # Type of FU issued
system.cpu1.iq.FU_type_0::SimdFloatAdd              0      0.00%     66.07% # Type of FU issued
system.cpu1.iq.FU_type_0::SimdFloatAlu              0      0.00%     66.07% # Type of FU issued
system.cpu1.iq.FU_type_0::SimdFloatCmp              0      0.00%     66.07% # Type of FU issued
system.cpu1.iq.FU_type_0::SimdFloatCvt              0      0.00%     66.07% # Type of FU issued
system.cpu1.iq.FU_type_0::SimdFloatDiv              0      0.00%     66.07% # Type of FU issued
system.cpu1.iq.FU_type_0::SimdFloatMisc             0      0.00%     66.07% # Type of FU issued
system.cpu1.iq.FU_type_0::SimdFloatMult             0      0.00%     66.07% # Type of FU issued
system.cpu1.iq.FU_type_0::SimdFloatMultAcc            0      0.00%     66.07% # Type of FU issued
system.cpu1.iq.FU_type_0::SimdFloatSqrt             0      0.00%     66.07% # Type of FU issued
system.cpu1.iq.FU_type_0::SimdReduceAdd             0      0.00%     66.07% # Type of FU issued
system.cpu1.iq.FU_type_0::SimdReduceAlu             0      0.00%     66.07% # Type of FU issued
system.cpu1.iq.FU_type_0::SimdReduceCmp             0      0.00%     66.07% # Type of FU issued
system.cpu1.iq.FU_type_0::SimdFloatReduceAdd            0      0.00%     66.07% # Type of FU issued
system.cpu1.iq.FU_type_0::SimdFloatReduceCmp            0      0.00%     66.07% # Type of FU issued
system.cpu1.iq.FU_type_0::SimdAes                   0      0.00%     66.07% # Type of FU issued
system.cpu1.iq.FU_type_0::SimdAesMix                0      0.00%     66.07% # Type of FU issued
system.cpu1.iq.FU_type_0::SimdSha1Hash              0      0.00%     66.07% # Type of FU issued
system.cpu1.iq.FU_type_0::SimdSha1Hash2             0      0.00%     66.07% # Type of FU issued
system.cpu1.iq.FU_type_0::SimdSha256Hash            0      0.00%     66.07% # Type of FU issued
system.cpu1.iq.FU_type_0::SimdSha256Hash2            0      0.00%     66.07% # Type of FU issued
system.cpu1.iq.FU_type_0::SimdShaSigma2             0      0.00%     66.07% # Type of FU issued
system.cpu1.iq.FU_type_0::SimdShaSigma3             0      0.00%     66.07% # Type of FU issued
system.cpu1.iq.FU_type_0::SimdPredAlu               0      0.00%     66.07% # Type of FU issued
system.cpu1.iq.FU_type_0::MemRead            36344062     26.89%     92.95% # Type of FU issued
system.cpu1.iq.FU_type_0::MemWrite            9524743      7.05%    100.00% # Type of FU issued
system.cpu1.iq.FU_type_0::FloatMemRead              0      0.00%    100.00% # Type of FU issued
system.cpu1.iq.FU_type_0::FloatMemWrite            12      0.00%    100.00% # Type of FU issued
system.cpu1.iq.FU_type_0::IprAccess                 0      0.00%    100.00% # Type of FU issued
system.cpu1.iq.FU_type_0::InstPrefetch              0      0.00%    100.00% # Type of FU issued
system.cpu1.iq.FU_type_0::total             135174929                       # Type of FU issued
system.cpu1.iq.fp_alu_accesses                     15                       # Number of floating point alu accesses
system.cpu1.iq.fp_inst_queue_reads                 27                       # Number of floating instruction queue reads
system.cpu1.iq.fp_inst_queue_wakeup_accesses           12                       # Number of floating instruction queue wakeup accesses
system.cpu1.iq.fp_inst_queue_writes                12                       # Number of floating instruction queue writes
system.cpu1.iq.fu_busy_cnt                    2704566                       # FU busy when requested
system.cpu1.iq.fu_busy_rate                  0.020008                       # FU busy rate (busy events/executed inst)
system.cpu1.iq.fu_full::No_OpClass                  0      0.00%      0.00% # attempts to use FU when none available
system.cpu1.iq.fu_full::IntAlu                 442346     16.36%     16.36% # attempts to use FU when none available
system.cpu1.iq.fu_full::IntMult                     0      0.00%     16.36% # attempts to use FU when none available
system.cpu1.iq.fu_full::IntDiv                      0      0.00%     16.36% # attempts to use FU when none available
system.cpu1.iq.fu_full::FloatAdd                    0      0.00%     16.36% # attempts to use FU when none available
system.cpu1.iq.fu_full::FloatCmp                    0      0.00%     16.36% # attempts to use FU when none available
system.cpu1.iq.fu_full::FloatCvt                    0      0.00%     16.36% # attempts to use FU when none available
system.cpu1.iq.fu_full::FloatMult                   0      0.00%     16.36% # attempts to use FU when none available
system.cpu1.iq.fu_full::FloatMultAcc                0      0.00%     16.36% # attempts to use FU when none available
system.cpu1.iq.fu_full::FloatDiv                    0      0.00%     16.36% # attempts to use FU when none available
system.cpu1.iq.fu_full::FloatMisc                   0      0.00%     16.36% # attempts to use FU when none available
system.cpu1.iq.fu_full::FloatSqrt                   0      0.00%     16.36% # attempts to use FU when none available
system.cpu1.iq.fu_full::SimdAdd                     0      0.00%     16.36% # attempts to use FU when none available
system.cpu1.iq.fu_full::SimdAddAcc                  0      0.00%     16.36% # attempts to use FU when none available
system.cpu1.iq.fu_full::SimdAlu                     0      0.00%     16.36% # attempts to use FU when none available
system.cpu1.iq.fu_full::SimdCmp                     0      0.00%     16.36% # attempts to use FU when none available
system.cpu1.iq.fu_full::SimdCvt                     0      0.00%     16.36% # attempts to use FU when none available
system.cpu1.iq.fu_full::SimdMisc                    0      0.00%     16.36% # attempts to use FU when none available
system.cpu1.iq.fu_full::SimdMult                    0      0.00%     16.36% # attempts to use FU when none available
system.cpu1.iq.fu_full::SimdMultAcc                 0      0.00%     16.36% # attempts to use FU when none available
system.cpu1.iq.fu_full::SimdShift                   0      0.00%     16.36% # attempts to use FU when none available
system.cpu1.iq.fu_full::SimdShiftAcc                0      0.00%     16.36% # attempts to use FU when none available
system.cpu1.iq.fu_full::SimdDiv                     0      0.00%     16.36% # attempts to use FU when none available
system.cpu1.iq.fu_full::SimdSqrt                    0      0.00%     16.36% # attempts to use FU when none available
system.cpu1.iq.fu_full::SimdFloatAdd                0      0.00%     16.36% # attempts to use FU when none available
system.cpu1.iq.fu_full::SimdFloatAlu                0      0.00%     16.36% # attempts to use FU when none available
system.cpu1.iq.fu_full::SimdFloatCmp                0      0.00%     16.36% # attempts to use FU when none available
system.cpu1.iq.fu_full::SimdFloatCvt                0      0.00%     16.36% # attempts to use FU when none available
system.cpu1.iq.fu_full::SimdFloatDiv                0      0.00%     16.36% # attempts to use FU when none available
system.cpu1.iq.fu_full::SimdFloatMisc               0      0.00%     16.36% # attempts to use FU when none available
system.cpu1.iq.fu_full::SimdFloatMult               0      0.00%     16.36% # attempts to use FU when none available
system.cpu1.iq.fu_full::SimdFloatMultAcc            0      0.00%     16.36% # attempts to use FU when none available
system.cpu1.iq.fu_full::SimdFloatSqrt               0      0.00%     16.36% # attempts to use FU when none available
system.cpu1.iq.fu_full::SimdReduceAdd               0      0.00%     16.36% # attempts to use FU when none available
system.cpu1.iq.fu_full::SimdReduceAlu               0      0.00%     16.36% # attempts to use FU when none available
system.cpu1.iq.fu_full::SimdReduceCmp               0      0.00%     16.36% # attempts to use FU when none available
system.cpu1.iq.fu_full::SimdFloatReduceAdd            0      0.00%     16.36% # attempts to use FU when none available
system.cpu1.iq.fu_full::SimdFloatReduceCmp            0      0.00%     16.36% # attempts to use FU when none available
system.cpu1.iq.fu_full::SimdAes                     0      0.00%     16.36% # attempts to use FU when none available
system.cpu1.iq.fu_full::SimdAesMix                  0      0.00%     16.36% # attempts to use FU when none available
system.cpu1.iq.fu_full::SimdSha1Hash                0      0.00%     16.36% # attempts to use FU when none available
system.cpu1.iq.fu_full::SimdSha1Hash2               0      0.00%     16.36% # attempts to use FU when none available
system.cpu1.iq.fu_full::SimdSha256Hash              0      0.00%     16.36% # attempts to use FU when none available
system.cpu1.iq.fu_full::SimdSha256Hash2             0      0.00%     16.36% # attempts to use FU when none available
system.cpu1.iq.fu_full::SimdShaSigma2               0      0.00%     16.36% # attempts to use FU when none available
system.cpu1.iq.fu_full::SimdShaSigma3               0      0.00%     16.36% # attempts to use FU when none available
system.cpu1.iq.fu_full::SimdPredAlu                 0      0.00%     16.36% # attempts to use FU when none available
system.cpu1.iq.fu_full::MemRead               1815420     67.12%     83.48% # attempts to use FU when none available
[...]
system.mem_ctrls.bytesReadSys                   59648                       # Total read bytes from the system interface side
system.mem_ctrls.bytesWrittenSys                 5248                       # Total written bytes from the system interface side
system.mem_ctrls.avgRdBW                      2676.51                       # Average DRAM read bandwidth in MiByte/s
system.mem_ctrls.avgWrBW                       203.84                       # Average achieved write bandwidth in MiByte/s
system.mem_ctrls.avgRdBWSys                   2753.32                       # Average system read bandwidth in MiByte/s
system.mem_ctrls.avgWrBWSys                    242.25                       # Average system write bandwidth in MiByte/s
system.mem_ctrls.peakBW                      12800.00                       # Theoretical peak bandwidth in MiByte/s
system.mem_ctrls.busUtil                        22.50                       # Data bus utilization in percentage
system.mem_ctrls.busUtilRead                    20.91                       # Data bus utilization in percentage for reads
system.mem_ctrls.busUtilWrite                    1.59                       # Data bus utilization in percentage for writes
system.mem_ctrls.totGap                      21662500                       # Total gap between requests
system.mem_ctrls.avgGap                      21363.41                       # Average gap between requests
system.mem_ctrls.masterReadBytes::.cpu0.inst        11456                       # Per-master bytes read from memory
system.mem_ctrls.masterReadBytes::.cpu0.data        10304                       # Per-master bytes read from memory
system.mem_ctrls.masterReadBytes::.l2.prefetcher        36224                       # Per-master bytes read from memory
system.mem_ctrls.masterWriteBytes::.writebacks         4416                       # Per-master bytes write to memory
system.mem_ctrls.masterReadRate::.cpu0.inst 528803545.051698625088                       # Per-master bytes read from memory rate (Bytes/sec)
system.mem_ctrls.masterReadRate::.cpu0.data 475627769.571639537811                       # Per-master bytes read from memory rate (Bytes/sec)
system.mem_ctrls.masterReadRate::.l2.prefetcher 1672082717.872968912125                       # Per-master bytes read from memory rate (Bytes/sec)
system.mem_ctrls.masterWriteRate::.writebacks 203840472.673559814692                       # Per-master bytes write to memory rate (Bytes/sec)
system.mem_ctrls.masterReadAccesses::.cpu0.inst          179                       # Per-master read serviced memory accesses
system.mem_ctrls.masterReadAccesses::.cpu0.data          182                       # Per-master read serviced memory accesses
system.mem_ctrls.masterReadAccesses::.l2.prefetcher          571                       # Per-master read serviced memory accesses
system.mem_ctrls.masterWriteAccesses::.writebacks           82                       # Per-master write serviced memory accesses
system.mem_ctrls.masterReadTotalLat::.cpu0.inst      7650504                       # Per-master read total memory access latency
system.mem_ctrls.masterReadTotalLat::.cpu0.data      6877755                       # Per-master read total memory access latency
system.mem_ctrls.masterReadTotalLat::.l2.prefetcher     21935497                       # Per-master read total memory access latency
system.mem_ctrls.masterWriteTotalLat::.writebacks    470631250                       # Per-master write total memory access latency
system.mem_ctrls.masterReadAvgLat::.cpu0.inst     42740.25                       # Per-master read average memory access latency
system.mem_ctrls.masterReadAvgLat::.cpu0.data     37789.86                       # Per-master read average memory access latency
system.mem_ctrls.masterReadAvgLat::.l2.prefetcher     38415.93                       # Per-master read average memory access latency
system.mem_ctrls.masterWriteAvgLat::.writebacks   5739405.49                       # Per-master write average memory access latency
system.mem_ctrls.pageHitRate                    81.84                       # Row buffer hit rate, read and write combined
system.mem_ctrls.rank1.actEnergy               435540                       # Energy for activate commands per rank (pJ)
system.mem_ctrls.rank1.preEnergy               235290                       # Energy for precharge commands per rank (pJ)
system.mem_ctrls.rank1.readEnergy             2470440                       # Energy for read commands per rank (pJ)
system.mem_ctrls.rank1.writeEnergy              83520                       # Energy for write commands per rank (pJ)
system.mem_ctrls.rank1.refreshEnergy     1843920.000000                       # Energy for refresh commands per rank (pJ)
system.mem_ctrls.rank1.actBackEnergy          9841050                       # Energy for active background per rank (pJ)
system.mem_ctrls.rank1.preBackEnergy            31680                       # Energy for precharge background per rank (pJ)
system.mem_ctrls.rank1.actPowerDownEnergy            0                       # Energy for active power-down per rank (pJ)
system.mem_ctrls.rank1.prePowerDownEnergy            0                       # Energy for precharge power-down per rank (pJ)
system.mem_ctrls.rank1.selfRefreshEnergy            0                       # Energy for self refresh per rank (pJ)
system.mem_ctrls.rank1.totalEnergy           14941440                       # Total energy per rank (pJ)
system.mem_ctrls.rank1.averagePower        689.689808                       # Core power per rank (mW)
system.mem_ctrls.rank1.totalIdleTime                0                       # Total Idle time Per DRAM Rank
system.mem_ctrls.rank1.memoryStateTime::IDLE            0                       # Time in different power states
system.mem_ctrls.rank1.memoryStateTime::REF       780000                       # Time in different power states
system.mem_ctrls.rank1.memoryStateTime::SREF            0                       # Time in different power states
system.mem_ctrls.rank1.memoryStateTime::PRE_PDN            0                       # Time in different power states
system.mem_ctrls.rank1.memoryStateTime::ACT     20884000                       # Time in different power states
system.mem_ctrls.rank1.memoryStateTime::ACT_PDN            0                       # Time in different power states
system.mem_ctrls.rank0.actEnergy               799680                       # Energy for activate commands per rank (pJ)
system.mem_ctrls.rank0.preEnergy               428835                       # Energy for precharge commands per rank (pJ)
system.mem_ctrls.rank0.readEnergy             3998400                       # Energy for read commands per rank (pJ)
system.mem_ctrls.rank0.writeEnergy             276660                       # Energy for write commands per rank (pJ)
system.mem_ctrls.rank0.refreshEnergy     1843920.000000                       # Energy for refresh commands per rank (pJ)
system.mem_ctrls.rank0.actBackEnergy          9657510                       # Energy for active background per rank (pJ)
system.mem_ctrls.rank0.preBackEnergy           186240                       # Energy for precharge background per rank (pJ)
system.mem_ctrls.rank0.actPowerDownEnergy            0                       # Energy for active power-down per rank (pJ)
system.mem_ctrls.rank0.prePowerDownEnergy            0                       # Energy for precharge power-down per rank (pJ)
system.mem_ctrls.rank0.selfRefreshEnergy            0                       # Energy for self refresh per rank (pJ)
system.mem_ctrls.rank0.totalEnergy           17191245                       # Total energy per rank (pJ)
system.mem_ctrls.rank0.averagePower        793.539743                       # Core power per rank (mW)
system.mem_ctrls.rank0.totalIdleTime                0                       # Total Idle time Per DRAM Rank
system.mem_ctrls.rank0.memoryStateTime::IDLE       387001                       # Time in different power states
system.mem_ctrls.rank0.memoryStateTime::REF       780000                       # Time in different power states
system.mem_ctrls.rank0.memoryStateTime::SREF            0                       # Time in different power states
system.mem_ctrls.rank0.memoryStateTime::PRE_PDN            0                       # Time in different power states
system.mem_ctrls.rank0.memoryStateTime::ACT     20496999                       # Time in different power states
system.mem_ctrls.rank0.memoryStateTime::ACT_PDN            0                       # Time in different power states
system.cpu1.pwrStateClkGateDist::samples            1                       # Distribution of time spent in the clock gated state
system.cpu1.pwrStateClkGateDist::mean        21664000                       # Distribution of time spent in the clock gated state
system.cpu1.pwrStateClkGateDist::1000-5e+10            1    100.00%    100.00% # Distribution of time spent in the clock gated state
system.cpu1.pwrStateClkGateDist::min_value     21664000                       # Distribution of time spent in the clock gated state
system.cpu1.pwrStateClkGateDist::max_value     21664000                       # Distribution of time spent in the clock gated state
system.cpu1.pwrStateClkGateDist::total              1                       # Distribution of time spent in the clock gated state
system.cpu1.pwrStateResidencyTicks::CLK_GATED     21664000                       # Cumulative time (in ticks) in various power states
system.cpu1.icache.pwrStateResidencyTicks::UNDEFINED     21664000                       # Cumulative time (in ticks) in various power states
system.cpu1.icache.blocked_cycles::no_mshrs            0                       # number of cycles access was blocked
system.cpu1.icache.blocked_cycles::no_targets            0                       # number of cycles access was blocked
system.cpu1.icache.blocked::no_mshrs                0                       # number of cycles access was blocked
system.cpu1.icache.blocked::no_targets              0                       # number of cycles access was blocked
system.cpu1.icache.avg_blocked_cycles::no_mshrs          nan                       # average number of cycles each access was blocked
system.cpu1.icache.avg_blocked_cycles::no_targets          nan                       # average number of cycles each access was blocked
system.cpu1.icache.replacements                     0                       # number of replacements
system.cpu1.icache.tags.pwrStateResidencyTicks::UNDEFINED     21664000                       # Cumulative time (in ticks) in various power states
system.cpu1.icache.tags.tagsinuse                  32                       # Cycle average of tags in use
system.cpu1.icache.tags.total_refs             737749                       # Total number of references to valid blocks.
system.cpu1.icache.tags.sampled_refs               32                       # Sample count of references to valid blocks.
system.cpu1.icache.tags.avg_refs         23054.656250                       # Average number of references to valid blocks.
system.cpu1.icache.tags.warmup_cycle                0                       # Cycle when the warmup percentage was hit.
system.cpu1.icache.tags.occ_blocks::.cpu1.inst           32                       # Average occupied blocks per requestor
system.cpu1.icache.tags.occ_percent::.cpu1.inst            1                       # Average percentage of cache occupancy
system.cpu1.icache.tags.occ_percent::total            1                       # Average percentage of cache occupancy
system.cpu1.icache.tags.occ_task_id_blocks::1024           32                       # Occupied blocks per task id
system.cpu1.icache.tags.age_task_id_blocks_1024::1           20                       # Occupied blocks per task id
system.cpu1.icache.tags.age_task_id_blocks_1024::3            1                       # Occupied blocks per task id
system.cpu1.icache.tags.age_task_id_blocks_1024::4           11                       # Occupied blocks per task id
system.cpu1.icache.tags.occ_task_id_percent::1024            1                       # Percentage of cache occupancy per task id
system.cpu1.icache.tags.tag_accesses                0                       # Number of tag accesses
system.cpu1.icache.tags.data_accesses               0                       # Number of data accesses
system.cpu1.dcache.pwrStateResidencyTicks::UNDEFINED     21664000                       # Cumulative time (in ticks) in various power states
system.cpu1.dcache.blocked_cycles::no_mshrs            0                       # number of cycles access was blocked
system.cpu1.dcache.blocked_cycles::no_targets            0                       # number of cycles access was blocked
system.cpu1.dcache.blocked::no_mshrs                0                       # number of cycles access was blocked
system.cpu1.dcache.blocked::no_targets              0                       # number of cycles access was blocked
system.cpu1.dcache.avg_blocked_cycles::no_mshrs          nan                       # average number of cycles each access was blocked
system.cpu1.dcache.avg_blocked_cycles::no_targets          nan                       # average number of cycles each access was blocked
system.cpu1.dcache.replacements                     0                       # number of replacements
system.cpu1.dcache.tags.pwrStateResidencyTicks::UNDEFINED     21664000                       # Cumulative time (in ticks) in various power states
system.cpu1.dcache.tags.tagsinuse           27.602843                       # Cycle average of tags in use
system.cpu1.dcache.tags.total_refs               1905                       # Total number of references to valid blocks.
system.cpu1.dcache.tags.sampled_refs               31                       # Sample count of references to valid blocks.
system.cpu1.dcache.tags.avg_refs            61.451613                       # Average number of references to valid blocks.
system.cpu1.dcache.tags.warmup_cycle                0                       # Cycle when the warmup percentage was hit.
system.cpu1.dcache.tags.occ_blocks::.cpu1.data    27.602843                       # Average occupied blocks per requestor
system.cpu1.dcache.tags.occ_percent::.cpu1.data     0.862589                       # Average percentage of cache occupancy
system.cpu1.dcache.tags.occ_percent::total     0.862589                       # Average percentage of cache occupancy
system.cpu1.dcache.tags.occ_task_id_blocks::1024           27                       # Occupied blocks per task id
system.cpu1.dcache.tags.age_task_id_blocks_1024::1           27                       # Occupied blocks per task id
system.cpu1.dcache.tags.occ_task_id_percent::1024     0.843750                       # Percentage of cache occupancy per task id
system.cpu1.dcache.tags.tag_accesses                0                       # Number of tag accesses
system.cpu1.dcache.tags.data_accesses               0                       # Number of data accesses
system.cpu_clk_domain.clock                       500                       # Clock period in ticks
system.tol2bus.pwrStateResidencyTicks::UNDEFINED     21664000                       # Cumulative time (in ticks) in various power states
system.tol2bus.trans_dist::ReadResp               590                       # Transaction distribution
system.tol2bus.trans_dist::WritebackDirty          192                       # Transaction distribution
system.tol2bus.trans_dist::WritebackClean          508                       # Transaction distribution
system.tol2bus.trans_dist::CleanEvict            1220                       # Transaction distribution
system.tol2bus.trans_dist::HardPFReq              943                       # Transaction distribution
system.tol2bus.trans_dist::UpgradeReq               3                       # Transaction distribution
system.tol2bus.trans_dist::UpgradeResp              3                       # Transaction distribution
system.tol2bus.trans_dist::ReadExReq               28                       # Transaction distribution
system.tol2bus.trans_dist::ReadExResp              28                       # Transaction distribution
system.tol2bus.trans_dist::ReadCleanReq           361                       # Transaction distribution
system.tol2bus.trans_dist::ReadSharedReq          230                       # Transaction distribution
system.tol2bus.pkt_count_system.cpu0.icache.mem_side::system.l2.cpu_side         1081                       # Packet count per connected master and slave (bytes)
system.tol2bus.pkt_count_system.cpu0.dcache.mem_side::system.l2.cpu_side          778                       # Packet count per connected master and slave (bytes)
system.tol2bus.pkt_count::total                  1859                       # Packet count per connected master and slave (bytes)
system.tol2bus.pkt_size_system.cpu0.icache.mem_side::system.l2.cpu_side        46080                       # Cumulative packet size per connected master and slave (bytes)
system.tol2bus.pkt_size_system.cpu0.dcache.mem_side::system.l2.cpu_side        32960                       # Cumulative packet size per connected master and slave (bytes)
system.tol2bus.pkt_size::total                  79040                       # Cumulative packet size per connected master and slave (bytes)
system.tol2bus.snoops                            2247                       # Total snoops (count)
system.tol2bus.snoopTraffic                      5312                       # Total snoop traffic (bytes)
system.tol2bus.snoop_fanout::samples             2867                       # Request fanout histogram
system.tol2bus.snoop_fanout::mean            0.175096                       # Request fanout histogram
system.tol2bus.snoop_fanout::stdev           0.399800                       # Request fanout histogram
system.tol2bus.snoop_fanout::underflows             0      0.00%      0.00% # Request fanout histogram
system.tol2bus.snoop_fanout::0                   2387     83.26%     83.26% # Request fanout histogram
system.tol2bus.snoop_fanout::1                    458     15.97%     99.23% # Request fanout histogram
system.tol2bus.snoop_fanout::2                     22      0.77%    100.00% # Request fanout histogram
system.tol2bus.snoop_fanout::3                      0      0.00%    100.00% # Request fanout histogram
system.tol2bus.snoop_fanout::4                      0      0.00%    100.00% # Request fanout histogram
system.tol2bus.snoop_fanout::5                      0      0.00%    100.00% # Request fanout histogram
system.tol2bus.snoop_fanout::6                      0      0.00%    100.00% # Request fanout histogram
system.tol2bus.snoop_fanout::7                      0      0.00%    100.00% # Request fanout histogram
system.tol2bus.snoop_fanout::8                      0      0.00%    100.00% # Request fanout histogram
system.tol2bus.snoop_fanout::overflows              0      0.00%    100.00% # Request fanout histogram
system.tol2bus.snoop_fanout::min_value              0                       # Request fanout histogram
system.tol2bus.snoop_fanout::max_value              2                       # Request fanout histogram
system.tol2bus.snoop_fanout::total               2867                       # Request fanout histogram
system.tol2bus.reqLayer0.occupancy            1238000                       # Layer occupancy (ticks)
system.tol2bus.reqLayer0.utilization              5.7                       # Layer utilization (%)
system.tol2bus.respLayer1.occupancy            389498                       # Layer occupancy (ticks)
system.tol2bus.respLayer1.utilization             1.8                       # Layer utilization (%)
system.tol2bus.respLayer0.occupancy            540000                       # Layer occupancy (ticks)
system.tol2bus.respLayer0.utilization             2.5                       # Layer utilization (%)

---------- End Simulation Statistics   ----------
