Redirecting stdout to /vol1/msoyturk/gem5/results/sssp/epinions.el/prefetch_TaggedPrefetcher_SecondChanceRP/output.txt
Redirecting stderr to /vol1/msoyturk/gem5/results/sssp/epinions.el/prefetch_TaggedPrefetcher_SecondChanceRP/error.txt
gem5 Simulator System.  http://gem5.org
gem5 is copyrighted software; use the --copyright option for details.

gem5 compiled Apr 26 2020 13:32:47
gem5 started Apr 28 2020 04:41:35
gem5 executing on draco, pid 29635
command line: /vol1/msoyturk/gem5/build/RISCV/gem5.fast -re --outdir=/vol1/msoyturk/gem5/results/sssp/epinions.el/prefetch_TaggedPrefetcher_SecondChanceRP --stdout-file=output.txt --stderr-file=error.txt /vol1/msoyturk/gem5/configs/example/my_se.py -c /vol1/msoyturk/gem5/gapbs/sssp -o '-f /vol1/msoyturk/gem5/gapbs/test/graphs/epinions.el' --caches --l1d_size=2kB --l1i_size=2kB --cpu-type=DerivO3CPU -n 4 --mem-size=512MB --l2cache --l2_size=4kB --l2-hwp-type=TaggedPrefetcher --l2-replacement-policy=SecondChanceRP --l1i_mshrs=4 --l1d_mshrs=4 --l2_mshrs=20 --l1i_write_buffers=8 --l1d_write_buffers=8 --l2_write_buffers=8

info: Standard input is not a terminal, disabling listeners.
Warning: l2-hwp-type is set ( TaggedPrefetcher ), but the current l2 has a default Hardware Prefetcher of type <class 'm5.params.NullSimObject'> , using the specified by the flag option.
Global frequency set at 1000000000000 ticks per second
**** REAL SIMULATION ****
Read Time:           0.50294
Build Time:          0.09869
Graph has 75888 nodes and 508837 directed edges for degree: 6
    0          1     0.02723
    8          1     0.04125
   10          1     0.10263
   12          1     0.12273
   14          1     0.04348
   16          3     0.05956
   17          3     0.04404
   18          4     0.20372
   19          5     0.20678
   20          4     0.43771
   21         10     0.38670
   22         13     0.39519
   23         19     0.34770
   24         26     0.29842
   25         31     0.53655
   26         49     0.42415
   27         75     0.45312
   28         64     0.51528
   29         81     0.34667
   30        111     0.61842
   31        105     0.59436
   32        131     0.50896
   33        154     0.61924
   34        181     0.67494
   35        188     0.77607
   36        192     0.65338
   37        231     0.60015
   38        260     0.55538
   39        263     0.47576
   40        259     0.43683
   41        295     0.56261
   42        278     0.32007
   43        328     0.55010
   44        294     0.52755
   45        296     0.33404
   46        324     0.37911
   47        348     0.42071
   48        319     0.34118
   49        323     0.27116
   50        348     0.31590
   51        347     0.30931
   52        320     0.34061
   53        332     0.28628
   54        367     0.40392
   55        362     0.28300
   56        371     0.33244
   57        344     0.21320
   58        360     0.19947
   59        362     0.23794
   60        391     0.18763
   61        334     0.17616
   62        352     0.17992
   63        335     0.15827
   64        344     0.17680
   65        385     0.15569
   66        342     0.15658
   67        326     0.14473
   68        308     0.11480
   69        385     0.16972
   70        308     0.13436
   71        331     0.14872
   72        377     0.13748
   73        368     0.13618
   74        345     0.10976
   75        338     0.11016
   76        345     0.13186
   77        310     0.08885
   78        342     0.10919
   79        320     0.08614
   80        357     0.10552
   81        301     0.09988
   82        337     0.10959
   83        331     0.11474
   84        348     0.14156
   85        309     0.07663
   86        318     0.06439
   87        316     0.07476
   88        316     0.09295
   89        305     0.08653
   90        309     0.08098
   91        291     0.05970
   92        302     0.09092
   93        298     0.08485
   94        320     0.11512
   95        315     0.07504
   96        303     0.07386
   97        325     0.07838
   98        283     0.07610
   99        278     0.07495
  100        311     0.07910
  101        280     0.07748
  102        293     0.07327
  103        284     0.06412
  104        304     0.08120
  105        278     0.07922
  106        291     0.07315
  107        305     0.07500
  108        302     0.07651
  109        284     0.05785
  110        309     0.06917
  111        293     0.05528
  112        284     0.05967
  113        308     0.07412
  114        257     0.05314
  115        295     0.06506
  116        259     0.06226
  117        276     0.07830
  118        277     0.05602
  119        310     0.06721
  120        277     0.04614
  121        258     0.05415
  122        267     0.05311
  123        296     0.05326
  124        283     0.04893
  125        284     0.06185
  126        291     0.06652
  127        261     0.05249
  128        266     0.05080
  129        257     0.06148
  130        285     0.06701
  131        276     0.06091
  132        279     0.05378
  133        259     0.08348
  134        266     0.04868
  135        255     0.05565
  136        221     0.04074
  137        225     0.03860
  138        229     0.04062
  139        261     0.04257
  140        263     0.06327
  141        266     0.05845
  142        248     0.05456
  143        246     0.04905
  144        265     0.05147
  145        277     0.04850
  146        247     0.04386
  147        269     0.04749
  148        248     0.05225
  149        276     0.05979
  150        251     0.05816
  151        277     0.05421
  152        261     0.04743
  153        244     0.04777
  154        237     0.04692
  155        246     0.03490
  156        229     0.05236
  157        236     0.04346
  158        258     0.04088
  159        219     0.03467
  160        259     0.04011
  161        225     0.03955
  162        232     0.03895
  163        272     0.04917
  164        259     0.04820
  165        238     0.03862
  166        272     0.04517
  167        240     0.04489
  168        246     0.04906
  169        233     0.03800
  170        218     0.03007
  171        235     0.04945
  172        260     0.03840
  173        212     0.03943
  174        245     0.04676
  175        255     0.04380
  176        197     0.03326
  177        254     0.04219
  178        234     0.04460
  179        214     0.03329
  180        260     0.04780
  181        257     0.04186
  182        244     0.03888
  183        225     0.04987
  184        235     0.04482
  185        215     0.03315
  186        230     0.03225
  187        238     0.04038
  188        231     0.04410
  189        226     0.03326
  190        223     0.03328
  191        218     0.03321
  192        232     0.03323
  193        231     0.04295
  194        221     0.03460
  195        205     0.04159
  196        197     0.04864
  197        229     0.03808
  198        213     0.03650
  199        212     0.04061
  200        219     0.02728
  201        206     0.03698
  202        230     0.03627
  203        220     0.02670
  204        201     0.03287
  205        233     0.03126
  206        215     0.04091
  207        229     0.03266
  208        224     0.02900
  209        224     0.02987
  210        214     0.03413
  211        203     0.03093
  212        211     0.03080
  213        226     0.03532
  214        175     0.02806
  215        197     0.04362
  216        205     0.03406
  217        198     0.03487
  218        248     0.04054
  219        189     0.03285
  220        205     0.03050
  221        204     0.03220
  222        207     0.03201
  223        202     0.03418
  224        194     0.03167
  225        211     0.03396
  226        212     0.03778
  227        233     0.02787
  228        202     0.02815
  229        207     0.04202
  230        187     0.03367
  231        193     0.02863
  232        196     0.03229
  233        204     0.03142
  234        178     0.03204
  235        215     0.03156
  236        188     0.02904
  237        222     0.04269
  238        210     0.02607
  239        205     0.02800
  240        197     0.04585
  241        188     0.03856
  242        184     0.03173
  243        183     0.03302
  244        190     0.03390
  245        199     0.02450
  246        201     0.03539
  247        222     0.03500
  248        196     0.03030
  249        188     0.02720
  250        179     0.03269
  251        199     0.02369
  252        214     0.03395
  253        196     0.02887
  254        200     0.02750
  255        200     0.02734
  256        196     0.02445
  257        195     0.02579
  258        210     0.03015
  259        211     0.03837
  260        208     0.03098
  261        172     0.02694
  262        206     0.02961
  263        191     0.03832
  264        190     0.03740
  265        193     0.03285
  266        192     0.02696
  267        212     0.03822
  268        198     0.03362
  269        173     0.03444
  270        201     0.03633
  271        191     0.03190
  272        185     0.02590
  273        195     0.03246
  274        182     0.02747
  275        191     0.02544
  276        179     0.02677
  277        181     0.02477
  278        171     0.03027
  279        178     0.02730
  280        181     0.03383
  281        175     0.03025
  282        154     0.02898
  283        153     0.02551
  284        156     0.02433
  285        171     0.03489
  286        163     0.02693
  287        162     0.02795
  288        174     0.04394
  289        130     0.01990
  290        153     0.03037
  291        119     0.01895
  292        138     0.02544
  293        129     0.02168
  294        115     0.01843
  295        103     0.01911
  296        105     0.02533
  297         99     0.01735
  298         92     0.01982
  299        110     0.02277
  300         78     0.01915
  301         92     0.02043
  302         90     0.02391
  303         96     0.01851
  304         74     0.01652
  305         93     0.01500
  306         73     0.02481
  307         84     0.01741
  308         80     0.02034
  309         80     0.01569
  310         66     0.02383
  311         70     0.02484
  312         70     0.02890
  313         62     0.02088
  314         65     0.02122
  315         62     0.02277
  316         59     0.02138
  317         52     0.01791
  318         54     0.01834
  319         56     0.01854
  320         50     0.01939
  321         55     0.01717
  322         49     0.01861
  323         59     0.02596
  324         46     0.01275
  325         58     0.02107
  326         45     0.01766
  327         54     0.02141
  328         40     0.01898
  329         44     0.01767
  330         43     0.02224
  331         50     0.02089
  332         40     0.01349
  333         42     0.01320
  334         41     0.01107
  335         35     0.01937
  336         41     0.02160
  337         44     0.01695
  338         34     0.01683
  339         41     0.02076
  340         41     0.01496
  341         46     0.01458
  342         44     0.01163
  343         34     0.01327
  344         55     0.01889
  345         48     0.01681
  346         39     0.01363
  347         32     0.01694
  348         28     0.01500
  349         34     0.01745
  350         39     0.01685
  351         31     0.01163
  352         31     0.01187
  353         31     0.01524
  354         31     0.01325
  355         39     0.01460
  356         32     0.01515
  357         27     0.01260
  358         27     0.01356
  359         41     0.02045
  360         34     0.01421
  361         28     0.00972
  362         25     0.01996
  363         29     0.00943
  364         21     0.01022
  365         32     0.01182
  366         26     0.01036
  367         24     0.01148
  368         28     0.01165
  369         21     0.01028
  370         33     0.01714
  371         31     0.01550
  372         16     0.01067
  373         22     0.01158
  374         21     0.01074
  375         22     0.01097
  376         19     0.01535
  377         34     0.01525
  378         19     0.01021
  379         22     0.01052
  380         21     0.01362
  381         28     0.01769
  382         26     0.00879
  383         21     0.01087
  384         36     0.01919
  385         20     0.01331
  386         31     0.01386
  387         26     0.01468
  388         25     0.01894
  389         18     0.01195
  390         17     0.01202
  391         15     0.00803
  392         20     0.01550
  393         16     0.01323
  394         20     0.01237
  395         24     0.01162
  396         17     0.01084
  397         23     0.01296
  398         23     0.01083
  399         22     0.01169
  400         20     0.01983
  401         23     0.01198
  402         23     0.01083
  403         19     0.01485
  404         13     0.00755
  405         24     0.01335
  406         13     0.00725
  407         13     0.00905
  408         15     0.01011
  409         12     0.00767
  410         14     0.01024
  411         13     0.01180
  412         22     0.01146
  413         14     0.00857
  414         17     0.00976
  415         15     0.00911
  416         18     0.01185
  417         15     0.00757
  418         12     0.01321
  419         21     0.01218
  420         22     0.00822
  421          9     0.00711
  422         15     0.01095
  423         15     0.01037
  424         16     0.01297
  425         17     0.01017
  426         23     0.01291
  427         15     0.00795
  428         23     0.01144
  429         10     0.00763
  430         26     0.00896
  431          8     0.00668
  432         12     0.01217
  433         15     0.00829
  434         19     0.01449
  435         13     0.01000
  436         13     0.00938
  437          8     0.00665
  438         17     0.00995
  439          6     0.01157
  440         10     0.01137
  441         18     0.00851
  442         15     0.00951
  443         10     0.00715
  444         19     0.01191
  445         15     0.00767
  446         10     0.00665
  447         15     0.00837
  448         12     0.01277
  449         14     0.01045
  450         16     0.00974
  451         12     0.00869
  452         12     0.00741
  453          8     0.00655
  454         10     0.00709
  455          9     0.00644
  456          9     0.00907
  457         13     0.00705
  458          8     0.00643
  459          6     0.00991
  460         15     0.00796
  461         17     0.01002
  462          9     0.01390
  463         11     0.00681
  464          8     0.00664
  465         14     0.00850
  466         10     0.00725
  467          5     0.00567
  468         11     0.00705
  469         13     0.00975
  470         14     0.01093
  471          8     0.01061
  472         11     0.00752
  473          6     0.00617
  474          9     0.01036
  475         10     0.01148
  476          9     0.00722
  477          6     0.01050
  478         11     0.00691
  479          9     0.00867
  480          6     0.00860
  481          3     0.00502
  482         12     0.01085
  483         10     0.00855
  484          5     0.00585
  485          7     0.00597
  486          4     0.00837
  487          2     0.00936
  488          5     0.01234
  489          7     0.00628
  490         10     0.00696
  491          4     0.00594
  492          7     0.01632
  493          8     0.00672
  494          8     0.00642
  495          3     0.00929
  496          9     0.01069
  497          6     0.00871
  498         11     0.00698
  499          2     0.00520
  500          3     0.00520
  501          4     0.00604
  502          7     0.00654
  503          8     0.00619
  504          2     0.00890
  505          6     0.00583
  506          9     0.00739
  507         10     0.00649
  508         10     0.00731
  509          6     0.00628
  510          5     0.00568
  511          5     0.00637
  512          6     0.00645
  513          4     0.00589
  514          3     0.00534
  515          9     0.00651
  516          2     0.00760
  517          6     0.00556
  518          5     0.00846
  519          1     0.00505
  520          2     0.00581
  521          7     0.00952
  522          6     0.00628
  523          6     0.00610
  524          2     0.00532
  525          4     0.00575
  526          3     0.00764
  527          2     0.00543
  528          5     0.00833
  529          3     0.00494
  530          4     0.00994
  531          3     0.00549
  532          6     0.00552
  533          6     0.00561
  534          2     0.00517
  535          4     0.00596
  536          3     0.00571
  537          3     0.00766
  538          3     0.00564
  539          2     0.00742
  540          7     0.00639
  541          3     0.00522
  542          5     0.00605
  543          4     0.01192
  544          4     0.00621
  546          4     0.00817
  547          3     0.00609
  548          7     0.00847
  549          3     0.00555
  550          3     0.00506
  551          3     0.00509
  552          3     0.00804
  553          2     0.00803
  555          2     0.00511
  556          1     0.00475
  557          1     0.00516
  558          6     0.00551
  559          3     0.00568
  560          2     0.00529
  561          4     0.00573
  562          2     0.00537
  563          4     0.00765
  564          4     0.00559
  565          1     0.00467
  566          2     0.00487
  567          1     0.00468
  568          1     0.00462
  569          2     0.00531
  570          4     0.00529
  571          1     0.00495
  572          1     0.00749
  573          1     0.00826
  574          2     0.00532
  576          2     0.00625
  577          2     0.00485
  578          3     0.00506
  579          1     0.00511
  580          4     0.00541
  581          1     0.00494
  582          5     0.00597
  584          3     0.00969
  585          2     0.00503
  586          2     0.00587
  587          1     0.00492
  588          1     0.00503
  589          2     0.00500
  590          2     0.00496
  591          2     0.00505
  592          2     0.00456
  593          3     0.00507
  595          1     0.00499
  596          4     0.00547
  599          1     0.00494
  600          2     0.00455
  601          2     0.00485
  602          3     0.00475
  604          2     0.00527
  605          3     0.00726
  606          1     0.00496
  607          2     0.00513
  608          1     0.00516
  610          1     0.00473
  611          4     0.00770
  612          2     0.00543
  613          1     0.00510
  614          2     0.00450
  616          1     0.00531
  619          1     0.00469
  620          2     0.01199
  622          4     0.01017
  623          3     0.00493
  624          2     0.00519
  625          4     0.00722
  627          1     0.00476
  628          1     0.00487
  631          1     0.00477
  632          1     0.00453
  634          1     0.00488
  635          1     0.00473
  636          3     0.01008
  637          3     0.00555
  639          3     0.00530
  640          2     0.00488
  641          1     0.00505
  643          1     0.00473
  644          1     0.00707
  646          1     0.00483
  647          1     0.00532
  648          1     0.00476
  649          2     0.00710
  650          3     0.00529
  652          2     0.00502
  653          2     0.00482
  654          1     0.00462
  655          2     0.00779
  656          1     0.00693
  657          1     0.00521
  658          1     0.00432
  659          1     0.00491
  660          1     0.00498
  661          2     0.00511
  666          1     0.00458
  667          1     0.00507
  668          1     0.00503
  672          1     0.00475
  676          1     0.00511
  679          1     0.00459
  682          1     0.00497
  684          2     0.00502
  685          1     0.00474
  686          1     0.00490
  690          1     0.00502
  691          1     0.00515
  693          1     0.00466
  695          1     0.00478
  696          1     0.00728
  697          1     0.00502
  698          1     0.00509
  700          1     0.00503
  702          1     0.00475
  705          1     0.00515
  706          1     0.00478
  707          2     0.00721
  708          1     0.00505
  715          2     0.00487
  718          1     0.00496
  721          1     0.00502
  724          1     0.00467
  731          1     0.00526
  735          1     0.00449
  737          2     0.00561
  738          1     0.00525
  739          1     0.00532
  762          1     0.00463
  766          1     0.00471
  777          1     0.00723
  780          1     0.00849
  782          1     0.00502
  786          1     0.00523
  788          1     0.00471
  790          1     0.00722
  791          1     0.00545
  796          1     0.00510
  797          1     0.00485
  806          1     0.00550
  821          1     0.00472
  825          1     0.00540
  837          2     0.00509
  843          1     0.00472
  844          1     0.00478
  851          1     0.00525
  872          1     0.00463
  873          1     0.00545
  880          1     0.01235
  883          1     0.00520
  889          1     0.00490
  890          1     0.00453
  902          1     0.00548
  931          1     0.00550
 1072          1     0.00500
took 689 iterations
Trial Time:          0.04483
    0          1     0.02161
  155          1     0.03338
  182          1     0.01204
  186          1     0.00918
  193          1     0.01455
  206          1     0.02626
  212          1     0.06592
  213          1     0.00894
  219          1     0.00499
  222          1     0.00501
  223          1     0.00551
  229          1     0.02203
  231          1     0.03892
  232          2     0.10410
  233          4     0.08339
  234          5     0.10315
  235          5     0.10261
  236          5     0.14456
  237          7     0.44020
  238          3     0.12040
  239         12     0.42067
  240          8     0.16790
  241         17     0.45774
  242         20     0.26509
  243         19     0.43764
  244         34     0.51351
  245         45     0.65338
  246         61     0.60254
  247         68     0.61223
  248         97     0.39106
  249        112     0.44317
  250        128     0.62553
  251        151     0.70899
  252        171     0.43126
  253        167     0.38987
  254        219     0.62394
  255        202     0.63750
  256        235     0.56769
  257        246     0.48705
  258        247     0.43962
  259        297     0.40179
  260        287     0.47941
  261        287     0.45017
  262        309     0.46171
  263        310     0.37711
  264        301     0.37765
  265        328     0.41116
  266        320     0.33409
  267        328     0.37144
  268        348     0.36135
  269        360     0.29867
  270        341     0.26280
  271        370     0.42666
  272        340     0.27381
  273        335     0.28706
  274        364     0.20749
  275        361     0.30451
  276        374     0.23864
  277        371     0.22662
  278        341     0.19760
  279        375     0.24476
  280        409     0.21859
  281        345     0.14715
  282        369     0.15201
  283        389     0.19973
  284        323     0.13354
  285        348     0.17932
  286        338     0.12424
  287        345     0.13043
  288        337     0.12752
  289        322     0.13265
  290        338     0.13594
  291        342     0.12903
  292        337     0.11897
  293        361     0.09667
  294        358     0.12565
  295        333     0.10028
  296        358     0.10555
  297        356     0.09206
  298        335     0.11657
  299        332     0.12762
  300        299     0.08618
  301        324     0.09606
  302        328     0.09151
  303        295     0.08229
  304        332     0.08949
  305        293     0.07788
  306        304     0.08503
  307        336     0.08206
  308        303     0.09298
  309        320     0.08329
  310        297     0.07355
  311        293     0.07597
  312        299     0.08300
  313        320     0.08319
  314        269     0.06799
  315        319     0.08119
  316        293     0.08047
  317        306     0.07646
  318        301     0.08100
  319        289     0.07116
  320        263     0.07494
  321        279     0.08133
  322        313     0.07598
  323        289     0.08014
  324        296     0.07517
  325        319     0.08217
  326        286     0.06182
  327        314     0.06445
  328        309     0.07589
  329        263     0.06001
  330        248     0.06544
  331        286     0.05129
  332        276     0.04647
  333        290     0.06392
  334        277     0.06442
  335        313     0.06823
  336        278     0.05784
  337        286     0.05833
  338        260     0.05675
  339        238     0.05837
  340        286     0.05162
  341        300     0.04997
  342        271     0.05917
  343        269     0.05838
  344        274     0.05974
  345        285     0.06066
  346        255     0.04796
  347        289     0.05634
  348        259     0.05272
  349        257     0.08242
  350        278     0.06101
  351        271     0.04380
  352        264     0.05598
  353        272     0.06394
  354        254     0.04803
  355        264     0.04317
  356        249     0.04347
  357        247     0.06805
  358        264     0.05773
  359        262     0.04984
  360        255     0.06314
  361        253     0.06155
  362        256     0.03457
  363        247     0.04711
  364        211     0.04288
  365        278     0.07980
  366        248     0.04469
  367        242     0.06100
  368        261     0.04150
  369        269     0.05731
  370        287     0.05369
  371        236     0.03557
  372        273     0.04035
  373        253     0.05070
  374        261     0.04725
  375        237     0.04556
  376        241     0.03789
  377        229     0.03350
  378        254     0.03826
  379        228     0.03903
  380        210     0.04314
  381        265     0.03999
  382        247     0.04456
  383        240     0.03576
  384        250     0.06064
  385        231     0.03427
  386        263     0.04501
  387        239     0.04072
  388        235     0.03982
  389        245     0.03671
  390        233     0.03819
  391        242     0.04198
  392        234     0.04444
  393        247     0.04050
  394        237     0.03616
  395        295     0.04778
  396        229     0.05918
  397        239     0.04341
  398        226     0.03052
  399        242     0.03830
  400        236     0.04010
  401        246     0.05431
  402        245     0.02777
  403        224     0.04338
  404        220     0.02838
  405        229     0.03181
  406        230     0.03829
  407        223     0.03889
  408        240     0.04602
  409        215     0.03136
  410        211     0.03881
  411        225     0.03860
  412        223     0.03605
  413        226     0.03489
  414        226     0.03632
  415        200     0.03808
  416        227     0.04604
  417        211     0.03290
  418        210     0.02860
  419        219     0.03724
  420        214     0.03488
  421        215     0.04014
  422        243     0.04226
  423        220     0.03155
  424        231     0.02771
  425        211     0.03428
  426        231     0.04416
  427        203     0.02778
  428        223     0.03362
  429        229     0.03172
  430        192     0.03631
  431        199     0.03093
  432        238     0.04075
  433        222     0.03487
  434        188     0.02800
  435        211     0.03273
  436        202     0.02838
  437        210     0.03593
  438        197     0.03672
  439        224     0.02858
  440        210     0.03600
  441        216     0.04067
  442        190     0.04009
  443        205     0.03501
  444        218     0.03302
  445        196     0.04032
  446        198     0.02989
  447        195     0.03092
  448        230     0.03806
  449        177     0.02481
  450        198     0.03513
  451        214     0.03726
  452        194     0.02800
  453        191     0.03081
  454        200     0.03359
  455        187     0.02840
  456        208     0.03148
  457        198     0.02405
  458        215     0.03367
  459        199     0.03931
  460        216     0.02629
  461        201     0.03288
  462        186     0.02973
  463        184     0.03138
  464        203     0.02360
  465        170     0.04042
  466        194     0.02769
  467        188     0.03093
  468        206     0.02846
  469        204     0.03717
  470        189     0.03017
  471        214     0.03139
  472        197     0.03034
  473        214     0.02334
  474        214     0.03567
  475        181     0.02618
  476        194     0.02966
  477        206     0.03521
  478        173     0.02331
  479        181     0.03121
  480        195     0.04109
  481        220     0.03086
  482        168     0.02298
  483        202     0.03404
  484        182     0.02635
  485        195     0.03472
  486        195     0.04077
  487        206     0.02735
  488        197     0.03119
  489        175     0.03036
  490        201     0.03497
  491        191     0.03862
  492        206     0.02888
  493        171     0.02948
  494        164     0.02639
  495        180     0.02652
  496        181     0.02799
  497        167     0.02983
  498        169     0.03105
  499        186     0.02751
  500        204     0.03450
  501        183     0.03433
  502        155     0.02865
  503        176     0.03248
  504        142     0.02580
  505        151     0.02792
  506        148     0.04372
  507        139     0.03474
  508        127     0.02224
  509        145     0.03112
  510        133     0.02532
  511        133     0.03436
  512        121     0.02654
  513        112     0.02132
  514        116     0.02527
  515        111     0.01930
  516        113     0.02110
  517        104     0.02366
  518         99     0.01943
  519         89     0.02333
  520         87     0.01822
  521         87     0.01985
  522         89     0.01929
  523         91     0.02274
  524         88     0.01468
  525         70     0.01685
  526         76     0.02171
  527         64     0.01859
  528         74     0.01751
  529         72     0.02084
  530         81     0.01517
  531         66     0.02022
  532         64     0.02606
  533         60     0.02664
  534         63     0.02282
  535         58     0.02210
  536         60     0.01744
  537         59     0.01783
  538         44     0.01432
  539         57     0.01657
  540         43     0.01776
  541         53     0.02337
  542         42     0.01135
  543         48     0.02651
  544         52     0.01934
  545         43     0.01610
  546         48     0.01410
  547         33     0.01300
  548         59     0.01751
  549         41     0.02089
  550         46     0.01426
  551         41     0.01727
  552         36     0.01312
  553         41     0.01493
  554         44     0.02198
  555         47     0.01358
  556         48     0.01817
  557         32     0.01439
  558         38     0.01535
  559         47     0.01905
  560         38     0.01685
  561         34     0.01758
  562         46     0.01542
  563         45     0.01172
  564         39     0.01824
  565         38     0.01307
  566         32     0.01708
  567         37     0.01589
  568         33     0.02413
  569         28     0.00971
  570         41     0.01498
  571         25     0.01068
  572         26     0.01905
  573         31     0.01087
  574         29     0.01574
  575         28     0.01128
  576         35     0.01798
  577         25     0.00934
  578         36     0.01653
  579         30     0.01290
  580         30     0.00980
  581         36     0.01794
  582         33     0.01462
  583         43     0.01597
  584         31     0.01180
  585         27     0.01286
  586         22     0.00859
  587         21     0.01393
  588         23     0.01386
  589         23     0.00984
  590         24     0.00978
  591         22     0.01195
  592         29     0.01453
  593         14     0.01415
  594         33     0.01168
  595         21     0.01131
  596         19     0.01225
  597         20     0.01252
  598         19     0.00895
  599         33     0.01455
  600         22     0.01133
  601         26     0.02161
  602         23     0.01343
  603         20     0.00919
  604         20     0.01483
  605         31     0.01438
  606         11     0.01013
  607         29     0.01655
  608         24     0.00949
  609         23     0.01485
  610         20     0.00846
  611         14     0.01101
  612         31     0.01374
  613         17     0.01392
  614         22     0.00879
  615         18     0.01130
  616         20     0.01249
  617         21     0.01078
  618         18     0.01332
  619         19     0.01638
  620         17     0.01440
  621         23     0.01388
  622         19     0.01251
  623         16     0.00777
  624         15     0.00987
  625         19     0.01467
  626         20     0.00855
  627         18     0.00981
  628         16     0.01219
  629         19     0.01316
  630         11     0.01042
  631         13     0.00710
  632         12     0.00779
  633         19     0.01174
  634         17     0.00901
  635         14     0.00785
  636         15     0.00960
  637         21     0.01205
  638         19     0.01570
  639          9     0.00707
  640         16     0.00817
  641         13     0.00728
  642         22     0.00844
  643         18     0.01677
  644         12     0.00726
  645         17     0.00952
  646         23     0.01182
  647         12     0.01379
  648         15     0.00793
  649         16     0.00755
  650         14     0.00781
  651         15     0.00966
  652         15     0.00863
  653         12     0.00954
  654         16     0.01194
  655         14     0.00918
  656         16     0.01370
  657          9     0.01137
  658         14     0.00765
  659          7     0.00594
  660          6     0.00563
  661          9     0.00834
  662         15     0.01137
  663         15     0.01282
  664         19     0.00848
  665         15     0.00771
  666         15     0.00736
  667          5     0.00923
  668         12     0.00897
  669          9     0.00917
  670         11     0.01036
  671         12     0.00894
  672         14     0.01007
  673         15     0.00889
  674         13     0.00920
  675         19     0.01062
  676          6     0.00615
  677          9     0.00640
  678         12     0.00824
  679         13     0.00965
  680         12     0.00798
  681          6     0.00557
  682          4     0.00555
  683         10     0.01441
  684          8     0.00680
  685         11     0.00652
  686         10     0.00699
  687         10     0.00695
  688         11     0.00667
  689         22     0.01289
  690          9     0.00669
  691         12     0.01155
  692          6     0.00663
  693          5     0.00606
  694         17     0.01579
  695          6     0.00899
  696          5     0.00612
  697          8     0.00697
  698          3     0.00521
  699         12     0.01117
  700          3     0.00585
  701          7     0.00667
  702          6     0.00689
  703          9     0.01047
  704          7     0.00908
  705          6     0.00612
  706          7     0.01248
  707          5     0.00594
  708          6     0.01063
  709          7     0.00871
  710          8     0.00800
  711          8     0.00639
  712          7     0.00600
  713          4     0.01328
  714          6     0.00597
  715          6     0.00603
  716          4     0.01140
  717          7     0.00980
  718          4     0.00625
  719         13     0.00840
  720          7     0.00632
  721          8     0.00638
  722          8     0.00868
  723          6     0.00626
  724          8     0.00628
  725          3     0.00875
  726          8     0.00640
  727          3     0.00536
  728          5     0.00561
  729          3     0.00542
  730          3     0.00875
  731          6     0.00582
  732          7     0.00617
  733          5     0.00621
  734          7     0.00812
  735          7     0.00616
  736          7     0.00773
  737          2     0.00543
  738          5     0.00600
  739          4     0.00633
  740          3     0.00489
  741          5     0.00569
  742          3     0.00804
  743          2     0.00536
  744          4     0.00561
  745          2     0.00505
  746          3     0.00517
  747          8     0.00855
  748          2     0.00509
  749          5     0.00540
  750          4     0.00522
  751          3     0.00767
  752          2     0.00512
  753          4     0.00535
  754          1     0.00491
  755          4     0.00536
  756          3     0.00811
  757          4     0.00585
  759          6     0.00817
  760          1     0.00472
  761          6     0.00969
  762          4     0.00615
  763          3     0.00532
  764          2     0.00529
  765          4     0.01074
  766          4     0.00560
  767          5     0.03012
  768          2     0.00533
  769          5     0.00629
  770          2     0.00492
  771          6     0.01092
  772          3     0.00510
  773          3     0.00487
  774          2     0.00497
  775          2     0.00511
  776          4     0.00549
  777          4     0.00529
  779          1     0.00487
  780          4     0.00524
  781          2     0.00711
  782          3     0.00514
  783          2     0.00519
  785          2     0.00569
  786          1     0.00471
  787          2     0.00505
  788          3     0.00527
  790          1     0.00470
  791          2     0.00468
  792          3     0.00825
  794          3     0.01011
  795          3     0.00544
  796          2     0.00468
  797          2     0.00571
  798          1     0.00479
  799          3     0.00557
  800          4     0.01119
  801          3     0.00500
  802          1     0.00498
  803          2     0.00483
  804          1     0.00515
  805          3     0.00530
  806          1     0.00451
  807          3     0.00550
  809          3     0.00465
  810          1     0.00493
  811          3     0.00524
  812          2     0.00487
  813          4     0.00525
  814          2     0.00456
  815          1     0.00697
  816          1     0.00478
  819          2     0.00494
  821          1     0.00449
  822          2     0.00515
  823          3     0.00533
  824          2     0.00477
  826          5     0.01324
  827          1     0.00472
  828          2     0.00516
  829          2     0.00508
  830          2     0.00478
  831          2     0.00747
  833          1     0.00477
  835          1     0.00490
  836          1     0.00475
  839          1     0.00489
  841          3     0.00513
  842          1     0.00490
  843          3     0.00733
  844          2     0.00543
  845          3     0.00744
  846          2     0.00836
  847          1     0.00513
  848          1     0.00443
  849          1     0.00480
  850          5     0.00940
  852          1     0.00859
  853          2     0.00532
  856          1     0.00453
  857          1     0.00495
  858          2     0.00500
  861          1     0.00473
  862          1     0.00523
  864          4     0.00508
  865          1     0.00483
  866          3     0.00779
  870          2     0.00793
  871          3     0.00541
  872          2     0.00483
  873          1     0.00473
  876          2     0.00806
  877          3     0.00541
  879          1     0.00495
  882          3     0.00550
  885          1     0.00513
  887          2     0.00492
  894          1     0.00475
  901          1     0.00466
  902          1     0.00832
  903          2     0.00492
  907          2     0.00522
  909          1     0.00461
  911          1     0.00467
  912          1     0.00480
  913          1     0.00475
  915          1     0.00503
  916          1     0.00478
  917          1     0.00477
  918          1     0.00495
  922          1     0.00469
  924          1     0.00490
  925          1     0.00568
  927          2     0.00537
  935          1     0.00479
  936          1     0.00476
  938          1     0.00494
  942          2     0.00499
  951          1     0.00469
  952          1     0.00492
  953          1     0.00510
  955          1     0.00483
  956          1     0.00472
  957          1     0.00537
  972          1     0.00482
  980          1     0.00531
  995          1     0.00829
  996          1     0.00614
 1005          1     0.00736
 1006          1     0.00497
 1009          1     0.00519
 1011          1     0.00507
 1012          1     0.00507
 1015          1     0.00524
 1018          1     0.00455
 1019          1     0.00524
 1042          1     0.00494
 1043          2     0.00503
 1049          1     0.00475
 1052          1     0.00470
 1058          1     0.00488
 1062          1     0.00500
 1086          2     0.01010
 1089          1     0.00517
 1094          1     0.00495
 1105          1     0.00501
 1112          1     0.00503
 1123          1     0.00487
 1137          1     0.00608
 1278          1     0.00452
took 690 iterations
Trial Time:          0.04449
    0          1     0.04797
    4          2     0.20145
    5          1     0.02251
    7          1     0.05543
    8          5     0.12870
    9          1     0.05548
   11          4     0.26438
   12          4     0.12845
   13          6     0.16499
   14          6     0.30123
   15         13     0.21389
   16          9     0.30651
   17         17     0.25429
   18         22     0.37781
   19         23     0.38198
   20         31     0.37848
   21         41     0.34696
   22         52     0.89889
   23         83     0.60231
   24        105     0.77543
   25        121     0.57920
   26        123     0.48221
   27        182     0.45026
   28        167     0.48606
   29        199     0.71452
   30        230     0.51583
   31        208     0.46755
   32        240     0.57722
   33        235     0.79458
   34        311     0.52950
   35        331     0.70938
   36        282     0.49548
   37        311     0.44148
   38        321     0.44686
   39        315     0.42259
   40        332     0.32190
   41        315     0.46155
   42        360     0.34963
   43        360     0.28572
   44        358     0.31865
   45        344     0.31024
   46        380     0.31360
   47        332     0.29633
   48        363     0.24113
   49        350     0.23395
   50        316     0.20261
   51        343     0.26230
   52        376     0.25179
   53        347     0.19298
   54        361     0.24098
   55        353     0.17286
   56        340     0.22221
   57        364     0.14455
   58        357     0.17995
   59        373     0.19132
   60        335     0.16331
   61        353     0.18227
   62        346     0.13465
   63        370     0.13512
   64        334     0.10642
   65        307     0.12495
   66        344     0.13368
   67        339     0.13223
   68        334     0.10032
   69        338     0.10549
   70        321     0.11030
   71        338     0.10630
   72        296     0.08121
   73        321     0.09378
   74        327     0.10364
   75        336     0.11512
   76        313     0.10918
   77        337     0.09128
   78        311     0.08942
   79        348     0.11205
   80        313     0.08208
   81        319     0.09562
   82        313     0.08268
   83        308     0.07948
   84        284     0.07653
   85        319     0.08076
   86        316     0.08831
   87        295     0.06601
   88        313     0.07407
   89        275     0.07501
   90        287     0.08422
   91        320     0.09053
   92        283     0.06904
   93        290     0.06900
   94        310     0.09229
   95        308     0.08350
   96        274     0.07673
   97        318     0.07930
   98        291     0.08814
   99        304     0.06678
  100        281     0.07125
  101        294     0.06929
  102        281     0.07441
  103        277     0.05824
  104        307     0.06515
  105        269     0.06189
  106        282     0.05412
  107        288     0.08672
  108        290     0.08259
  109        264     0.06938
  110        301     0.06478
  111        297     0.05940
  112        264     0.06206
  113        294     0.05902
  114        318     0.06236
  115        303     0.05295
  116        273     0.04625
  117        292     0.06461
  118        288     0.06486
  119        267     0.04689
  120        270     0.05444
  121        270     0.05666
  122        258     0.04127
  123        259     0.06165
  124        281     0.04722
  125        243     0.04908
  126        301     0.06340
  127        255     0.05984
  128        250     0.05763
  129        261     0.06533
  130        261     0.04607
  131        280     0.04532
  132        244     0.04440
  133        249     0.04670
  134        258     0.06859
  135        251     0.05123
  136        263     0.06778
  137        233     0.04250
  138        221     0.04514
  139        234     0.06318
  140        270     0.05228
  141        260     0.04318
  142        251     0.04664
  143        229     0.05431
  144        279     0.05363
  145        263     0.05019
  146        221     0.05614
  147        253     0.04934
  148        258     0.03748
  149        261     0.05923
  150        248     0.05821
  151        226     0.03680
  152        265     0.05108
  153        226     0.03603
  154        235     0.04544
  155        259     0.04657
  156        245     0.04662
  157        244     0.04852
  158        231     0.02879
  159        263     0.04565
  160        249     0.03824
  161        239     0.03581
  162        251     0.05943
  163        251     0.05082
  164        231     0.04005
  165        237     0.03272
  166        231     0.03653
  167        223     0.03932
  168        242     0.03124
  169        225     0.05873
  170        247     0.04821
  171        228     0.04896
  172        212     0.03061
  173        261     0.05112
  174        244     0.03680
  175        235     0.03119
  176        246     0.03970
  177        258     0.04132
  178        233     0.03068
  179        247     0.04614
  180        239     0.04384
  181        229     0.05998
  182        217     0.03623
  183        221     0.03913
  184        218     0.03299
  185        220     0.03552
  186        238     0.03368
  187        242     0.03909
  188        224     0.03692
  189        202     0.03000
  190        238     0.03307
  191        234     0.04054
  192        223     0.03697
  193        186     0.03507
  194        183     0.03791
  195        209     0.03478
  196        210     0.03440
  197        214     0.03972
  198        232     0.03615
  199        212     0.03347
  200        212     0.02955
  201        228     0.04138
  202        216     0.03757
  203        235     0.04710
  204        188     0.03695
  205        219     0.04109
  206        209     0.03313
  207        202     0.03427
  208        205     0.04215
  209        207     0.03857
  210        222     0.03435
  211        202     0.03052
  212        203     0.03746
  213        216     0.04050
  214        209     0.02948
  215        198     0.03104
  216        200     0.02232
  217        196     0.04016
  218        208     0.03230
  219        187     0.02713
  220        241     0.03834
  221        231     0.03025
  222        194     0.03818
  223        178     0.03737
  224        193     0.03057
  225        196     0.03244
  226        170     0.03291
  227        217     0.04001
  228        205     0.03255
  229        211     0.02897
  230        209     0.02894
  231        192     0.03090
  232        195     0.03073
  233        195     0.02871
  234        229     0.03473
  235        193     0.03601
  236        211     0.02758
  237        219     0.03678
  238        199     0.02954
  239        180     0.03152
  240        182     0.03386
  241        180     0.03351
  242        183     0.02620
  243        189     0.03571
  244        198     0.02505
  245        173     0.02397
  246        220     0.03124
  247        188     0.03221
  248        181     0.03487
  249        205     0.02284
  250        190     0.02704
  251        223     0.02716
  252        207     0.04778
  253        201     0.02592
  254        216     0.03382
  255        185     0.03635
  256        186     0.02902
  257        197     0.02778
  258        203     0.03124
  259        217     0.04320
  260        191     0.02676
  261        181     0.04329
  262        186     0.02848
  263        201     0.03394
  264        177     0.03094
  265        182     0.02991
  266        209     0.03873
  267        165     0.02959
  268        192     0.02638
  269        190     0.02923
  270        174     0.03195
  271        210     0.02765
  272        185     0.03020
  273        185     0.03601
  274        180     0.02813
  275        166     0.03415
  276        156     0.03689
  277        165     0.02197
  278        147     0.02951
  279        168     0.02585
  280        132     0.01981
  281        152     0.01796
  282        169     0.02840
  283        161     0.04017
  284        150     0.02768
  285        131     0.03011
  286        123     0.02432
  287        132     0.01847
  288        126     0.02732
  289        106     0.01969
  290        109     0.02888
  291         98     0.01635
  292         90     0.01841
  293         99     0.02239
  294        115     0.02201
  295        109     0.02462
  296         86     0.01909
  297         77     0.02020
  298         74     0.01397
  299         87     0.01941
  300         83     0.02369
  301         74     0.01656
  302         72     0.02251
  303         77     0.02109
  304         72     0.01959
  305         56     0.01513
  306         66     0.01700
  307         69     0.02325
  308         54     0.03107
  309         63     0.02063
  310         63     0.01566
  311         79     0.02710
  312         58     0.02292
  313         46     0.01855
  314         64     0.02135
  315         45     0.01720
  316         56     0.02286
  317         42     0.01989
  318         44     0.01452
  319         45     0.01659
  320         41     0.01838
  321         39     0.01327
  322         33     0.01392
  323         51     0.01545
  324         51     0.01724
  325         47     0.01719
  326         44     0.01462
  327         50     0.01518
  328         50     0.01914
  329         38     0.01540
  330         38     0.01408
  331         39     0.01381
  332         37     0.01622
  333         45     0.01530
  334         39     0.01716
  335         45     0.02372
  336         33     0.01491
  337         46     0.01830
  338         43     0.01509
  339         37     0.01930
  340         42     0.01747
  341         41     0.01169
  342         44     0.01396
  343         27     0.01553
  344         25     0.00860
  345         38     0.01401
  346         30     0.01089
  347         40     0.02108
  348         29     0.00884
  349         21     0.00909
  350         39     0.02190
  351         31     0.01564
  352         27     0.00923
  353         21     0.01637
  354         35     0.01703
  355         35     0.01316
  356         32     0.01070
  357         23     0.00863
  358         27     0.01226
  359         32     0.01326
  360         32     0.01422
  361         31     0.01265
  362         22     0.01251
  363         27     0.01527
  364         23     0.01031
  365         28     0.01373
  366         19     0.01509
  367         36     0.01347
  368         29     0.01460
  369         27     0.00906
  370         20     0.00939
  371         16     0.01159
  372         20     0.00898
  373         19     0.01468
  374         20     0.01255
  375         23     0.01291
  376         18     0.00855
  377         27     0.01306
  378         30     0.01446
  379         22     0.00861
  380         17     0.01572
  381         33     0.01678
  382         30     0.01883
  383         30     0.01395
  384         24     0.01906
  385         18     0.01044
  386         16     0.00776
  387         28     0.00915
  388         17     0.01319
  389         22     0.01302
  390         20     0.01215
  391         12     0.00767
  392         19     0.01220
  393         20     0.01132
  394         26     0.01026
  395         12     0.01218
  396         11     0.01004
  397         18     0.00821
  398         21     0.00951
  399         21     0.01468
  400         17     0.01153
  401         13     0.00778
  402         14     0.00799
  403         21     0.01182
  404         16     0.00869
  405         19     0.01363
  406         10     0.00720
  407         18     0.00855
  408         13     0.00735
  409         13     0.01175
  410         14     0.00989
  411         22     0.01117
  412         17     0.01469
  413         15     0.01392
  414         22     0.01138
  415         15     0.01303
  416         18     0.00868
  417         19     0.00811
  418         14     0.01042
  419         19     0.01355
  420         10     0.00684
  421         16     0.00718
  422         11     0.00668
  423         13     0.00710
  424         25     0.01030
  425         15     0.01255
  426         17     0.01413
  427         17     0.00955
  428         11     0.01213
  429         14     0.01060
  430         11     0.00892
  431         17     0.00771
  432         14     0.00738
  433         15     0.00924
  434         17     0.00972
  435         13     0.00813
  436         20     0.01658
  437          4     0.00579
  438          9     0.00997
  439         15     0.01045
  440         12     0.01151
  441          7     0.00609
  442         13     0.01133
  443         15     0.00741
  444          7     0.00632
  445         15     0.01066
  446         12     0.00700
  447         12     0.00926
  448         15     0.00724
  449          9     0.00848
  450         14     0.00788
  451          9     0.00918
  452         13     0.00780
  453          9     0.00656
  454          9     0.00812
  455          6     0.00629
  456         12     0.01070
  457         11     0.00735
  458         18     0.00877
  459         11     0.00620
  460         14     0.00771
  461          8     0.00627
  462         13     0.00836
  463          8     0.01576
  464          9     0.00617
  465         13     0.01023
  466          7     0.00613
  467          5     0.01132
  468          9     0.00730
  469          6     0.00915
  470         10     0.00650
  471          6     0.00621
  472         15     0.01467
  473          7     0.00774
  474         14     0.01419
  475          7     0.00636
  476          9     0.00639
  477          3     0.00526
  478          5     0.00591
  479          6     0.00833
  480          7     0.00632
  481          6     0.00822
  482          4     0.00567
  483          2     0.00737
  484          7     0.00945
  485          7     0.01136
  486          8     0.00697
  487          9     0.00656
  488          6     0.00633
  489          7     0.00620
  490          4     0.00555
  491         12     0.01175
  492          4     0.00577
  493          5     0.00595
  494          7     0.01066
  495          7     0.00621
  496          7     0.01525
  497          7     0.00792
  498          7     0.00602
  499          6     0.00636
  500          7     0.00806
  501          8     0.00715
  502          3     0.00548
  503          7     0.00636
  504          7     0.00588
  505          7     0.00605
  506          2     0.00509
  507          4     0.00607
  508          5     0.00762
  509          5     0.00609
  510          2     0.00512
  511          4     0.00522
  512          4     0.00577
  513          7     0.00589
  514          4     0.00671
  515          6     0.00611
  516          4     0.00559
  517          5     0.00865
  518          2     0.00483
  519          1     0.00523
  520          2     0.00464
  521          7     0.00618
  522          4     0.00528
  523          7     0.00948
  524          2     0.00515
  525          6     0.00568
  527          2     0.00516
  528          5     0.00819
  529          2     0.00513
  530          5     0.00540
  531          6     0.00657
  532          6     0.01041
  533          3     0.00545
  534          4     0.00511
  535          3     0.00606
  536          4     0.00532
  537          2     0.00509
  538          3     0.01185
  539          3     0.00548
  540          6     0.00641
  541          2     0.00502
  542          5     0.00785
  543          4     0.00563
  544          2     0.00722
  545          4     0.00796
  546          4     0.00602
  547          2     0.00456
  548          2     0.00498
  549          2     0.00467
  550          3     0.00565
  551          4     0.00530
  553          3     0.00509
  554          4     0.00530
  556          2     0.00729
  558          3     0.00510
  559          5     0.00758
  560          3     0.00516
  561          4     0.00763
  562          1     0.00525
  563          1     0.00438
  564          2     0.00528
  565          1     0.00935
  566          5     0.00593
  567          1     0.00494
  568          1     0.00583
  569          1     0.00498
  570          1     0.00480
  571          1     0.00503
  572          1     0.00468
  573          2     0.00727
  574          1     0.00493
  575          1     0.00494
  576          1     0.00509
  577          2     0.00581
  578          3     0.00939
  579          3     0.00692
  580          1     0.00509
  582          2     0.00518
  583          4     0.00572
  584          2     0.00512
  585          1     0.00507
  586          4     0.00549
  587          1     0.00454
  588          2     0.00525
  590          2     0.00445
  591          1     0.00494
  594          3     0.00541
  595          3     0.00535
  596          1     0.00488
  597          3     0.00501
  598          1     0.00503
  599          1     0.00485
  600          4     0.00636
  601          2     0.00531
  602          4     0.00539
  604          1     0.00471
  606          2     0.00507
  607          3     0.00543
  609          4     0.01512
  610          1     0.00681
  612          1     0.00468
  614          1     0.00489
  616          1     0.00493
  617          3     0.00535
  619          3     0.00551
  621          3     0.00511
  623          2     0.00533
  624          1     0.00566
  625          1     0.00476
  626          2     0.00701
  628          1     0.00521
  629          2     0.00508
  630          2     0.00501
  631          2     0.00762
  632          2     0.00535
  633          1     0.00508
  636          2     0.00819
  637          3     0.00737
  638          1     0.00520
  639          2     0.00547
  641          3     0.00555
  642          1     0.00523
  644          2     0.00750
  647          1     0.00466
  648          3     0.00790
  649          2     0.00506
  650          1     0.00497
  652          3     0.00530
  655          1     0.00963
  656          2     0.00503
  661          1     0.00478
  662          1     0.00466
  663          1     0.00541
  665          1     0.00476
  667          2     0.00495
  673          1     0.00474
  677          1     0.00511
  679          2     0.00478
  680          1     0.00472
  681          1     0.00477
  684          1     0.00493
  685          1     0.00711
  690          1     0.00512
  691          1     0.00505
  694          1     0.00486
  695          1     0.00481
  696          1     0.00713
  697          1     0.00522
  698          1     0.00459
  699          2     0.00503
  700          1     0.00500
  703          1     0.00453
  705          1     0.00498
  713          1     0.00502
  717          1     0.00501
  718          1     0.00477
  719          1     0.00498
  721          1     0.00488
  725          1     0.00464
  726          1     0.00484
  727          1     0.00490
  732          1     0.00518
  735          1     0.00526
  739          1     0.00488
  755          1     0.00484
  758          1     0.00462
  766          1     0.00710
  776          1     0.00766
  777          1     0.00466
  779          1     0.00721
  782          1     0.00526
  785          1     0.00498
  786          1     0.00483
  792          1     0.00489
  793          1     0.00504
  795          1     0.00565
  814          1     0.00549
  825          1     0.00518
  826          1     0.00486
  832          1     0.00457
  833          1     0.00506
  836          1     0.00521
  846          1     0.00519
  869          1     0.02929
  872          2     0.00550
  873          1     0.00497
  883          1     0.00504
  884          1     0.00477
  902          1     0.00519
  920          1     0.00596
 1061          1     0.00498
took 686 iterations
Trial Time:          0.04471
    0          1     0.03879
    1          1     0.08631
    3          1     0.06391
    4          1     0.00472
    6          1     0.01640
    7          1     0.04608
    8          1     0.01152
    9          1     0.01473
   10          1     0.00683
   12          1     0.00825
   14          2     0.14641
   15          2     0.01018
   16          2     0.03166
   17          1     0.01098
   18          4     0.72372
   19          9     0.19453
   20         12     0.08703
   21          9     0.20903
   22         14     0.64527
   23         10     0.12231
   24         13     0.16106
   25         18     0.28468
   26         28     0.38924
   27         33     0.60457
   28         49     0.56300
   29         73     0.59858
   30         79     0.49228
   31        102     0.64060
   32         98     0.55508
   33        122     0.57235
   34        153     0.68826
   35        181     0.49906
   36        197     0.54996
   37        217     0.58650
   38        254     0.55524
   39        265     0.61314
   40        276     0.52112
   41        293     0.57120
   42        279     0.52960
   43        335     0.61716
   44        325     0.40290
   45        335     0.40047
   46        332     0.46165
   47        323     0.35522
   48        365     0.46370
   49        362     0.28355
   50        359     0.33998
   51        381     0.29682
   52        347     0.22136
   53        361     0.41970
   54        372     0.24375
   55        371     0.24065
   56        380     0.24616
   57        366     0.23387
   58        366     0.21701
   59        356     0.22074
   60        369     0.18180
   61        373     0.19826
   62        348     0.15526
   63        337     0.16825
   64        329     0.15374
   65        374     0.15595
   66        358     0.13792
   67        352     0.13037
   68        371     0.13656
   69        319     0.13285
   70        330     0.16654
   71        346     0.13080
   72        328     0.11809
   73        345     0.11414
   74        349     0.11273
   75        325     0.12920
   76        293     0.09681
   77        361     0.13588
   78        329     0.10089
   79        321     0.10367
   80        320     0.10290
   81        314     0.09279
   82        294     0.08459
   83        315     0.09367
   84        332     0.11853
   85        350     0.11943
   86        341     0.09261
   87        326     0.09110
   88        310     0.09639
   89        312     0.07935
   90        303     0.09569
   91        327     0.09234
   92        289     0.07140
   93        304     0.08497
   94        335     0.10319
   95        308     0.08966
   96        282     0.07866
   97        293     0.08052
   98        323     0.07981
   99        285     0.06528
  100        301     0.07745
  101        288     0.06732
  102        319     0.08504
  103        271     0.07130
  104        292     0.06486
  105        291     0.07074
  106        290     0.07740
  107        290     0.06274
  108        284     0.05910
  109        306     0.06593
  110        273     0.05469
  111        257     0.06849
  112        276     0.06500
  113        279     0.05861
  114        320     0.08279
  115        294     0.06030
  116        293     0.07312
  117        270     0.06859
  118        283     0.07402
  119        288     0.06293
  120        258     0.05956
  121        285     0.06572
  122        256     0.05198
  123        288     0.06396
  124        298     0.05873
  125        261     0.05259
  126        284     0.04892
  127        265     0.05387
  128        240     0.05385
  129        275     0.07483
  130        261     0.04336
  131        244     0.04375
  132        275     0.05378
  133        289     0.04714
  134        271     0.04845
  135        278     0.07386
  136        273     0.06039
  137        234     0.03917
  138        267     0.05369
  139        255     0.05154
  140        250     0.04379
  141        256     0.05028
  142        260     0.04849
  143        270     0.04892
  144        221     0.04546
  145        255     0.04515
  146        262     0.04638
  147        259     0.05004
  148        263     0.04875
  149        271     0.04983
  150        260     0.05886
  151        236     0.04532
  152        272     0.03941
  153        282     0.04822
  154        260     0.05427
  155        245     0.04585
  156        243     0.04683
  157        238     0.04262
  158        241     0.03924
  159        264     0.04921
  160        238     0.04917
  161        222     0.03728
  162        247     0.04506
  163        230     0.03430
  164        249     0.04780
  165        256     0.03804
  166        224     0.04146
  167        252     0.03842
  168        233     0.04891
  169        262     0.04558
  170        227     0.04124
  171        236     0.04402
  172        220     0.03623
  173        259     0.04383
  174        237     0.03820
  175        264     0.04742
  176        223     0.03143
  177        237     0.03480
  178        214     0.03608
  179        237     0.04026
  180        225     0.03622
  181        232     0.03698
  182        248     0.05302
  183        267     0.03556
  184        239     0.03802
  185        246     0.04223
  186        241     0.03563
  187        253     0.04814
  188        210     0.04262
  189        224     0.03354
  190        208     0.03539
  191        238     0.04024
  192        243     0.04838
  193        201     0.03635
  194        236     0.03542
  195        220     0.04524
  196        230     0.03784
  197        198     0.04226
  198        236     0.03671
  199        223     0.03142
  200        197     0.02935
  201        215     0.03638
  202        229     0.03250
  203        220     0.03478
  204        220     0.03497
  205        225     0.03614
  206        225     0.02969
  207        230     0.03371
  208        209     0.02778
  209        229     0.03548
  210        213     0.03867
  211        203     0.03608
  212        184     0.03848
  213        218     0.03819
  214        196     0.03427
  215        228     0.03074
  216        198     0.03547
  217        204     0.02766
  218        206     0.03465
  219        224     0.03881
  220        215     0.02934
  221        183     0.03812
  222        211     0.04101
  223        206     0.03575
  224        204     0.02799
  225        202     0.03660
  226        199     0.03721
  227        204     0.03667
  228        206     0.03761
  229        201     0.03244
  230        227     0.03623
  231        199     0.02194
  232        229     0.03412
  233        176     0.02575
  234        194     0.03473
  235        211     0.02805
  236        201     0.03306
  237        231     0.03377
  238        190     0.03679
  239        207     0.03110
  240        203     0.03086
  241        220     0.03217
  242        204     0.05404
  243        198     0.02905
  244        212     0.02989
  245        196     0.03201
  246        209     0.04399
  247        201     0.02398
  248        188     0.02651
  249        189     0.02114
  250        190     0.03523
  251        188     0.02550
  252        170     0.02465
  253        228     0.03250
  254        189     0.03203
  255        172     0.03292
  256        192     0.03177
  257        198     0.04084
  258        198     0.03835
  259        183     0.02362
  260        213     0.03110
  261        220     0.03106
  262        200     0.02686
  263        227     0.02876
  264        194     0.02766
  265        178     0.03617
  266        166     0.02273
  267        175     0.02987
  268        191     0.03042
  269        205     0.02663
  270        187     0.03710
  271        190     0.03327
  272        210     0.02655
  273        204     0.03180
  274        168     0.02306
  275        182     0.03351
  276        168     0.02828
  277        190     0.03134
  278        195     0.02791
  279        188     0.03107
  280        199     0.02845
  281        172     0.02538
  282        182     0.04422
  283        162     0.03044
  284        160     0.02783
  285        153     0.02815
  286        168     0.02939
  287        154     0.02855
  288        134     0.01990
  289        138     0.02858
  290        129     0.02142
  291        122     0.02865
  292        120     0.02148
  293        115     0.02434
  294        123     0.02457
  295        134     0.03090
  296        116     0.01636
  297        105     0.02455
  298         91     0.02305
  299        106     0.02027
  300         88     0.02387
  301         94     0.01946
  302         85     0.02398
  303         82     0.01857
  304         76     0.02087
  305         75     0.02214
  306         62     0.02165
  307         69     0.02051
  308         66     0.02139
  309         80     0.02763
  310         86     0.02035
  311         76     0.01864
  312         59     0.01981
  313         70     0.01752
  314         79     0.02028
  315         61     0.01763
  316         49     0.01596
  317         69     0.01663
  318         42     0.02037
  319         54     0.01519
  320         60     0.01384
  321         52     0.02152
  322         45     0.01609
  323         43     0.01926
  324         39     0.01543
  325         45     0.02667
  326         43     0.01689
  327         49     0.01648
  328         57     0.01744
  329         70     0.02493
  330         38     0.01539
  331         35     0.01303
  332         33     0.02379
  333         50     0.01186
  334         58     0.02516
  335         33     0.01534
  336         46     0.01178
  337         32     0.01992
  338         55     0.02537
  339         32     0.01356
  340         48     0.02355
  341         28     0.00870
  342         38     0.01572
  343         37     0.02013
  344         38     0.01599
  345         43     0.01393
  346         38     0.01964
  347         39     0.01525
  348         37     0.01080
  349         36     0.02011
  350         34     0.01239
  351         32     0.01615
  352         30     0.01530
  353         43     0.01158
  354         35     0.01610
  355         25     0.01091
  356         22     0.01534
  357         28     0.01041
  358         34     0.01901
  359         28     0.00895
  360         29     0.01775
  361         27     0.01887
  362         26     0.00974
  363         29     0.01032
  364         42     0.02023
  365         28     0.01589
  366         28     0.01284
  367         27     0.01148
  368         29     0.01017
  369         31     0.01329
  370         30     0.01840
  371         21     0.01070
  372         19     0.00847
  373         12     0.00720
  374         24     0.01394
  375         23     0.01325
  376         20     0.01087
  377         21     0.01052
  378         22     0.00858
  379         24     0.00985
  380         26     0.01127
  381         26     0.01886
  382         23     0.01122
  383         23     0.01528
  384         20     0.00844
  385         23     0.02133
  386         24     0.01692
  387         24     0.01146
  388         33     0.01807
  389         21     0.01162
  390         23     0.01237
  391         16     0.01104
  392         20     0.01148
  393         18     0.00796
  394         14     0.01046
  395         20     0.00899
  396         15     0.00959
  397         26     0.01235
  398         19     0.01736
  399         25     0.00958
  400         14     0.01057
  401         13     0.01044
  402         16     0.01067
  403         28     0.01023
  404         26     0.00890
  405         10     0.00885
  406         13     0.00842
  407         18     0.01370
  408         21     0.01699
  409         18     0.01216
  410         15     0.01030
  411         19     0.01148
  412         15     0.00998
  413         13     0.01122
  414         20     0.01238
  415         19     0.01026
  416         17     0.00765
  417         14     0.01021
  418         23     0.01582
  419         17     0.00796
  420         15     0.00758
  421         13     0.01073
  422         18     0.00770
  423         16     0.00956
  424         11     0.00794
  425         21     0.01089
  426         20     0.00939
  427         12     0.00907
  428          9     0.00918
  429         14     0.00740
  430         12     0.00683
  431         14     0.01151
  432         14     0.01141
  433         13     0.01138
  434         15     0.01189
  435         20     0.00985
  436          9     0.00851
  437         10     0.01136
  438         16     0.01044
  439         16     0.00907
  440         12     0.00922
  441         12     0.00866
  442          9     0.00986
  443         19     0.00834
  444         13     0.00711
  445         16     0.01001
  446         12     0.00976
  447         16     0.00803
  448         10     0.00809
  449          9     0.00924
  450          9     0.00666
  451         16     0.00787
  452         14     0.00735
  453         10     0.00926
  454         13     0.00997
  455         11     0.01011
  456         11     0.00651
  457          9     0.00703
  458         11     0.00693
  459         10     0.00698
  460         10     0.00702
  461          8     0.00643
  462         12     0.00737
  463         11     0.01379
  464         12     0.00731
  465         10     0.01041
  466          9     0.00703
  467          8     0.00658
  468         12     0.01221
  469         12     0.00714
  470         13     0.00993
  471         15     0.01072
  472          6     0.01108
  473         10     0.00697
  474          6     0.00667
  475          6     0.00578
  476          3     0.00553
  477         18     0.01212
  478          8     0.00815
  479          5     0.00972
  480          8     0.00996
  481          8     0.01151
  482         12     0.00771
  483          5     0.01008
  484          4     0.00586
  485          6     0.00602
  486          5     0.00589
  487          4     0.00587
  488         12     0.01116
  489         11     0.00947
  490          5     0.00837
  491          4     0.00599
  492          4     0.00585
  493          9     0.00631
  494          4     0.01327
  495          7     0.00638
  496          7     0.00637
  497          3     0.00512
  498          5     0.00606
  499          5     0.00519
  500          9     0.00625
  501          7     0.00918
  502          4     0.00611
  503          9     0.01128
  504          8     0.00832
  505          9     0.00675
  506          9     0.00647
  507         11     0.00865
  508          5     0.00659
  509          9     0.00955
  510          8     0.00609
  511          4     0.00609
  512          3     0.00554
  513          7     0.00820
  514          5     0.00590
  515          1     0.00503
  516          4     0.00557
  517          7     0.00611
  518          4     0.00556
  519          7     0.00724
  520          1     0.00512
  521          3     0.00514
  522          2     0.00578
  523          4     0.00539
  524          7     0.00592
  525          5     0.00872
  526          3     0.00727
  527          5     0.00602
  528          3     0.00514
  529          3     0.00516
  530          4     0.01002
  531          3     0.00544
  532          4     0.00545
  533          4     0.00530
  534          3     0.00511
  535          1     0.00494
  536          2     0.00502
  537          4     0.01204
  538          3     0.00654
  539          2     0.00549
  540          4     0.00528
  541          5     0.00820
  542          2     0.00877
  543          1     0.00484
  544          2     0.00504
  545          4     0.00593
  546          8     0.00879
  547          3     0.00568
  548          2     0.00469
  549          4     0.00607
  550          5     0.01032
  551          1     0.00512
  552          3     0.00514
  553          2     0.00527
  554          5     0.00740
  555          1     0.00476
  556          2     0.00483
  557          4     0.00532
  558          3     0.00534
  559          3     0.00648
  561          6     0.00578
  562          3     0.00750
  563          2     0.00482
  564          4     0.00523
  566          2     0.00519
  568          1     0.00469
  569          1     0.00464
  570          1     0.00472
  571          1     0.00715
  572          3     0.00480
  573          4     0.00786
  574          3     0.00513
  575          3     0.00741
  576          2     0.00516
  578          3     0.00507
  579          2     0.00773
  580          1     0.00496
  581          1     0.00474
  582          3     0.00495
  584          4     0.00509
  585          4     0.00910
  586          1     0.00503
  588          2     0.00510
  589          3     0.00604
  590          2     0.00546
  591          2     0.00512
  593          2     0.00527
  594          4     0.00528
  595          2     0.00507
  596          1     0.00490
  600          1     0.00501
  601          1     0.00469
  602          1     0.00472
  603          2     0.00437
  604          3     0.00491
  605          3     0.00875
  606          1     0.00508
  608          2     0.00525
  609          1     0.00472
  610          4     0.00513
  612          1     0.00504
  614          1     0.00480
  615          2     0.00496
  616          1     0.00466
  618          2     0.00998
  619          2     0.00530
  621          1     0.00453
  622          1     0.00489
  623          3     0.01297
  624          2     0.00738
  625          1     0.00506
  626          2     0.00518
  627          2     0.00724
  628          4     0.00749
  629          2     0.00527
  630          2     0.00467
  634          1     0.00473
  635          3     0.00497
  637          3     0.00793
  638          2     0.00507
  639          1     0.00478
  640          1     0.00485
  641          1     0.00494
  642          1     0.00464
  643          1     0.00711
  646          2     0.00525
  648          2     0.00505
  649          2     0.00749
  653          2     0.00474
  654          1     0.00476
  655          2     0.00509
  656          1     0.00513
  657          2     0.00486
  658          1     0.00478
  659          1     0.00695
  660          1     0.00496
  661          1     0.00443
  663          1     0.00480
  667          1     0.00482
[...]
 1246          1     0.00440
took 692 iterations
Trial Time:          0.04466
    0          1     0.04584
  149          1     0.03259
  175          1     0.23028
  176          1     0.02229
  177          1     0.14394
  178          1     0.02437
  179          3     0.12906
  180          4     0.05602
  181          7     0.37517
  182          7     0.19843
  183          8     0.20202
  184         10     0.37744
  185          9     0.14053
  186         20     0.33698
  187         22     0.25027
  188         23     0.65064
  189         46     0.46487
  190         52     0.31305
  191         55     0.48172
  192         81     0.46331
  193         99     0.69830
  194        111     0.57694
  195        126     0.58258
  196        163     0.45604
  197        165     0.55217
  198        199     0.99895
  199        195     0.79139
  200        257     0.47462
  201        222     0.42134
  202        230     0.40330
  203        278     0.41682
  204        296     0.49127
  205        312     0.59505
  206        323     0.47525
  207        320     0.33361
  208        307     0.41356
  209        334     0.38830
  210        311     0.40401
  211        377     0.32525
  212        360     0.32862
  213        348     0.36930
  214        334     0.35473
  215        350     0.28734
  216        341     0.29201
  217        352     0.26840
  218        370     0.24836
  219        388     0.36268
  220        336     0.18124
  221        325     0.20995
  222        370     0.20628
  223        375     0.18029
  224        358     0.22129
  225        333     0.16675
  226        348     0.15940
  227        354     0.19904
  228        342     0.16314
  229        384     0.17761
  230        369     0.16120
  231        359     0.15364
  232        340     0.13009
  233        330     0.11933
  234        364     0.13187
  235        341     0.13988
  236        358     0.12832
  237        356     0.10504
  238        339     0.13954
  239        326     0.11532
  240        355     0.11875
  241        310     0.10511
  242        314     0.11977
  243        354     0.10074
  244        305     0.10360
  245        310     0.10702
  246        309     0.08734
  247        324     0.11382
  248        333     0.07501
  249        315     0.09497
  250        291     0.09052
  251        320     0.07884
  252        314     0.09735
  253        319     0.09226
  254        300     0.08298
  255        309     0.09686
  256        335     0.08855
  257        304     0.07180
  258        304     0.06785
  259        296     0.09481
  260        324     0.09991
  261        304     0.06776
  262        299     0.06877
  263        264     0.06248
  264        295     0.09516
  265        291     0.06386
  266        314     0.06441
  267        259     0.06996
  268        307     0.08454
  269        296     0.07941
  270        276     0.06174
  271        267     0.05285
  272        293     0.05740
  273        264     0.06752
  274        283     0.06228
  275        293     0.08319
  276        306     0.06443
  277        262     0.05699
  278        331     0.07934
  279        304     0.07581
  280        291     0.07463
  281        274     0.05723
  282        276     0.06602
  283        280     0.05727
  284        295     0.05777
  285        269     0.05118
  286        292     0.07066
  287        271     0.05457
  288        262     0.06602
  289        277     0.05131
  290        262     0.05396
  291        278     0.04784
  292        264     0.04927
  293        261     0.04839
  294        262     0.05449
  295        273     0.07328
  296        267     0.05077
  297        251     0.08782
  298        262     0.07238
  299        286     0.05971
  300        257     0.04977
  301        229     0.05499
  302        258     0.05092
  303        280     0.04688
  304        247     0.04235
  305        236     0.04423
  306        247     0.03566
  307        258     0.05596
  308        254     0.05034
  309        252     0.05455
  310        232     0.05433
  311        245     0.04836
  312        217     0.04225
  313        259     0.06366
  314        243     0.06262
  315        272     0.04777
  316        232     0.05994
  317        277     0.04568
  318        252     0.04608
  319        244     0.04319
  320        260     0.05249
  321        232     0.03951
  322        217     0.03929
  323        245     0.04834
  324        245     0.03946
  325        232     0.04078
  326        228     0.03865
  327        229     0.03029
  328        255     0.05683
  329        271     0.04210
  330        252     0.04511
  331        231     0.04804
  332        270     0.04830
  333        226     0.03697
  334        230     0.03228
  335        230     0.04665
  336        256     0.05011
  337        235     0.04569
  338        212     0.04288
  339        255     0.04856
  340        239     0.03252
  341        259     0.04373
  342        238     0.04228
  343        257     0.04237
  344        223     0.03662
  345        278     0.03651
  346        236     0.04716
  347        250     0.04598
  348        223     0.05308
  349        222     0.02987
  350        230     0.03896
  351        226     0.04061
  352        215     0.03869
  353        237     0.04204
  354        210     0.03461
  355        229     0.03939
  356        209     0.02972
  357        228     0.03465
  358        223     0.03542
  359        213     0.03788
  360        198     0.03238
  361        229     0.04826
  362        216     0.03422
  363        227     0.03802
  364        215     0.03251
  365        213     0.03648
  366        217     0.02863
  367        195     0.03176
  368        220     0.03092
  369        226     0.03035
  370        217     0.02692
  371        201     0.03783
  372        236     0.03964
  373        209     0.03791
  374        212     0.04444
  375        229     0.03383
  376        207     0.03387
  377        194     0.02876
  378        198     0.03243
  379        223     0.02974
  380        207     0.02465
  381        201     0.03275
  382        218     0.04328
  383        196     0.02716
  384        206     0.03303
  385        204     0.02801
  386        215     0.03640
  387        209     0.03808
  388        221     0.04029
  389        168     0.02765
  390        202     0.03275
  391        200     0.03028
  392        188     0.03143
  393        202     0.03091
  394        189     0.03871
  395        199     0.03435
  396        214     0.04031
  397        218     0.03668
  398        205     0.02948
  399        211     0.03748
  400        203     0.03407
  401        188     0.03873
  402        196     0.02462
  403        224     0.03007
  404        221     0.04061
  405        180     0.03093
  406        178     0.02344
  407        215     0.02918
  408        185     0.03456
  409        181     0.02223
  410        207     0.03555
  411        192     0.03149
  412        191     0.03802
  413        186     0.03588
  414        214     0.02569
  415        198     0.02754
  416        203     0.02928
  417        197     0.02994
  418        213     0.02830
  419        178     0.03476
  420        204     0.02780
  421        212     0.03104
  422        199     0.03578
  423        191     0.03129
  424        179     0.02658
  425        196     0.02915
  426        207     0.03912
  427        201     0.03563
  428        175     0.02557
  429        176     0.02903
  430        184     0.02635
  431        225     0.03017
  432        209     0.03234
  433        193     0.03837
  434        189     0.03792
  435        184     0.03553
  436        177     0.02964
  437        206     0.03167
  438        203     0.03447
  439        188     0.03183
  440        175     0.02960
  441        163     0.03138
  442        183     0.02515
  443        179     0.03204
  444        168     0.03048
  445        183     0.03225
  446        144     0.02361
  447        166     0.02251
  448        155     0.02389
  449        153     0.02958
  450        148     0.03163
  451        153     0.03373
  452        145     0.02915
  453        141     0.02282
  454        126     0.02643
  455        134     0.02226
  456        112     0.02700
  457        104     0.02223
  458        125     0.02485
  459        123     0.02064
  460        109     0.02463
  461        108     0.02463
  462         81     0.01869
  463         95     0.02236
  464         87     0.01993
  465         96     0.01931
  466         88     0.02118
  467         87     0.01809
  468         79     0.01826
  469         88     0.02402
  470         71     0.02100
  471         74     0.02117
  472         66     0.01544
  473         64     0.01655
  474         70     0.02685
  475         74     0.02062
  476         60     0.02187
  477         55     0.02428
  478         53     0.02410
  479         56     0.01807
  480         56     0.01884
  481         54     0.02425
  482         52     0.01902
  483         54     0.01784
  484         49     0.02168
  485         51     0.01262
  486         57     0.02061
  487         50     0.01414
  488         46     0.01466
  489         55     0.01489
  490         50     0.02382
  491         47     0.01532
  492         46     0.01466
  493         54     0.02211
  494         44     0.01663
  495         38     0.01592
  496         50     0.01392
  497         42     0.01545
  498         41     0.01787
  499         44     0.01341
  500         47     0.02009
  501         34     0.01072
  502         60     0.02646
  503         39     0.02006
  504         40     0.02163
  505         35     0.01118
  506         40     0.01174
  507         33     0.01398
  508         33     0.01006
  509         49     0.01653
  510         31     0.01358
  511         40     0.01278
  512         29     0.01583
  513         34     0.01128
  514         24     0.00911
  515         33     0.02231
  516         37     0.01373
  517         29     0.01373
  518         23     0.01239
  519         24     0.01156
  520         31     0.01231
  521         28     0.01418
  522         22     0.01606
  523         44     0.02047
  524         28     0.01456
  525         29     0.01020
  526         28     0.01460
  527         29     0.01105
  528         34     0.01401
  529         18     0.00842
  530         27     0.01291
  531         35     0.01550
  532         24     0.01235
  533         32     0.01429
  534         31     0.01694
  535         24     0.01419
  536         20     0.01196
  537         24     0.00863
  538         22     0.01026
  539         18     0.00842
  540         21     0.00890
  541         25     0.00898
  542         16     0.00790
  543         25     0.01171
  544         24     0.01456
  545         25     0.01224
  546         20     0.01682
  547         29     0.01315
  548         21     0.01325
  549         21     0.01552
  550         22     0.01657
  551         21     0.01064
  552         24     0.01447
  553         23     0.00960
  554         25     0.00920
  555         19     0.01532
  556         25     0.01075
  557         24     0.00929
  558         18     0.00839
  559         24     0.01122
  560         16     0.01003
  561         17     0.01184
  562         20     0.01294
  563         17     0.01248
  564         16     0.00736
  565         20     0.00882
  566         15     0.00888
  567         12     0.01254
  568         18     0.01618
  569         11     0.01260
  570         28     0.02339
  571         19     0.00847
  572         16     0.00871
  573         24     0.00893
  574         18     0.01719
  575         20     0.01527
  576         17     0.01039
  577         13     0.00779
  578         15     0.00821
  579         15     0.01034
  580         15     0.00823
  581         18     0.01029
  582          8     0.00691
  583         14     0.00748
  584         20     0.01567
  585         17     0.01314
  586         13     0.00858
  587         17     0.01247
  588         17     0.00989
  589         11     0.00709
  590         25     0.00954
  591         14     0.00729
  592         14     0.01139
  593         13     0.00974
  594         17     0.01122
  595          9     0.00854
  596         13     0.00725
  597         15     0.01135
  598         18     0.01312
  599         13     0.00752
  600         14     0.00743
  601         14     0.01129
  602         15     0.00976
  603         11     0.00661
  604          8     0.00726
  605         11     0.00949
  606         16     0.01180
  607         14     0.01274
  608         13     0.00754
  609         13     0.00955
  610         19     0.01247
  611         14     0.00723
  612          9     0.00636
  613         14     0.00857
  614          9     0.00730
  615          9     0.00674
  616         14     0.01206
  617         15     0.00752
  618          7     0.00798
  619          6     0.01034
  620         13     0.00752
  621         10     0.00874
  622         16     0.00804
  623          7     0.00650
  624         10     0.01225
  625         12     0.01121
  626         10     0.00716
  627         10     0.00753
  628          7     0.00996
  629         15     0.00751
  630         12     0.00824
  631         13     0.01479
  632          8     0.00681
  633         10     0.00696
  634         11     0.00700
  635          9     0.00844
  636          8     0.01261
  637          9     0.00674
  638         12     0.01530
  639          9     0.00617
  640          8     0.00808
  641          8     0.01551
  642         12     0.00721
  643          7     0.00593
  644          5     0.00589
  645          6     0.00628
  646          7     0.00630
  647          6     0.00873
  648          8     0.00696
  649          4     0.00595
  650          9     0.00658
  651          6     0.00613
  652          5     0.00700
  653         11     0.00702
  654          7     0.00855
  655          5     0.00566
  656          3     0.00523
  657          5     0.00536
  658          7     0.00627
  659          3     0.00561
  660          8     0.01175
  661          5     0.00581
  662          5     0.00669
  663          5     0.00613
  664          8     0.01269
  665         12     0.00732
  666          9     0.01079
  667          9     0.00673
  668          3     0.00546
  669          6     0.00632
  670          6     0.00624
  671          3     0.00590
  672          5     0.00605
  673          6     0.00609
  674          9     0.00633
  675          5     0.00596
  676          4     0.00545
  677          7     0.00679
  678          7     0.00859
  679          4     0.00531
  680          3     0.00513
  681          5     0.00991
  682          8     0.00671
  683          2     0.00491
  684          4     0.00561
  685          2     0.00524
  686          6     0.00972
  687          6     0.00614
  688          6     0.00595
  689          2     0.00481
  690          4     0.00583
  691          3     0.00486
  692          3     0.00607
  694          5     0.00866
  695          2     0.00522
  696          4     0.00536
  697          3     0.00498
  698          1     0.00496
  699          4     0.00547
  700          5     0.01027
  701          1     0.00482
  702          1     0.00489
  703          4     0.00541
  704          4     0.00504
  705          5     0.00572
  706          6     0.00610
  707          3     0.00499
  708          6     0.00651
  709          2     0.00496
  710          5     0.01025
  711          3     0.00677
  712          5     0.00832
  713          2     0.01204
  714          6     0.00844
  715          1     0.00497
  716          2     0.00467
  717          1     0.00490
  718          2     0.00466
  719          5     0.00595
  720          4     0.00598
  721          5     0.00935
  722          2     0.00505
  723          3     0.00608
  724          4     0.00538
  725          1     0.00474
  728          1     0.00783
  729          1     0.00452
  730          2     0.00454
  731          2     0.00826
  732          2     0.00505
  733          2     0.00687
  734          1     0.00445
  735          3     0.00541
  736          3     0.00508
  737          2     0.00504
  738          1     0.00477
  739          3     0.00535
  740          1     0.00481
  741          2     0.00537
  742          1     0.00471
  743          4     0.00748
  745          1     0.00465
  746          1     0.00474
  747          3     0.00734
  748          2     0.00468
  749          4     0.00896
  750          1     0.00515
  752          3     0.00488
  753          1     0.00455
  754          2     0.00487
  755          1     0.00469
  758          3     0.00500
  759          2     0.00475
  760          3     0.00524
  761          2     0.00511
  763          4     0.00504
  764          3     0.00494
  766          3     0.00554
  769          1     0.00469
  770          4     0.00655
  771          1     0.00464
  773          1     0.00459
  774          3     0.00467
  775          3     0.00771
  776          1     0.00464
  777          1     0.00456
  778          2     0.00514
  779          1     0.00455
  780          2     0.00509
  782          2     0.00461
  783          1     0.00473
  786          2     0.01384
  788          5     0.00806
  789          1     0.00470
  792          4     0.00908
  794          2     0.00588
  795          1     0.00441
  797          3     0.00550
  798          1     0.00787
  799          2     0.00502
  800          2     0.00514
  804          2     0.00782
  805          1     0.00868
  809          3     0.00538
  811          1     0.00435
  812          1     0.00488
  813          2     0.00459
  814          2     0.00448
  815          1     0.00688
  816          1     0.00494
  817          3     0.00746
  818          2     0.00456
  819          1     0.00445
  821          3     0.00548
  824          3     0.00470
  829          1     0.00503
  830          1     0.00443
  831          2     0.02861
  833          2     0.00496
  834          1     0.00478
  837          1     0.00470
  848          2     0.00519
  849          2     0.00458
  850          1     0.00466
  851          1     0.00437
  855          1     0.00454
  856          1     0.00493
  857          1     0.00494
  858          1     0.00486
  859          1     0.00457
  861          1     0.00462
  862          1     0.00775
  867          1     0.00425
  870          1     0.00480
  871          2     0.00742
  872          2     0.00480
  876          1     0.00455
  877          1     0.00455
  879          1     0.00466
  880          1     0.00421
  881          1     0.00466
  887          1     0.00464
  893          1     0.00484
  896          1     0.00496
  899          1     0.00487
  900          1     0.00478
  901          1     0.00471
  908          1     0.00506
  930          1     0.00459
  932          1     0.00466
  941          1     0.00786
  945          2     0.00906
  947          1     0.00497
  951          1     0.00495
  952          1     0.00485
  956          1     0.00727
  961          1     0.00459
  962          1     0.00520
  972          1     0.00468
  989          1     0.00498
  993          1     0.00480
 1002          1     0.00472
 1003          1     0.00487
 1005          1     0.00448
 1009          1     0.00446
 1017          1     0.00485
 1041          1     0.00485
 1046          1     0.01305
 1049          2     0.00453
 1050          1     0.00469
 1051          1     0.00495
 1078          1     0.00511
 1097          1     0.00566
 1238          1     0.00449
took 681 iterations
Trial Time:          0.04457
Average Time:        0.03920
Exiting @ tick 1282930409500 because exiting with last active thread context
