
---------- Begin Simulation Statistics ----------
final_tick                               490557948500                       # Number of ticks from beginning of simulation (restored from checkpoints and never reset)
host_inst_rate                                  99971                       # Simulator instruction rate (inst/s)
host_mem_usage                                 738308                       # Number of bytes of host memory used
host_op_rate                                   100304                       # Simulator op (including micro ops) rate (op/s)
host_seconds                                  6135.94                       # Real time elapsed on the host
host_tick_rate                               79948286                       # Simulator tick rate (ticks/s)
sim_freq                                 1000000000000                       # Frequency of simulated ticks
sim_insts                                   613418551                       # Number of instructions simulated
sim_ops                                     615457334                       # Number of ops (including micro ops) simulated
sim_seconds                                  0.490558                       # Number of seconds simulated
sim_ticks                                490557948500                       # Number of ticks simulated
system.cpu0.branchPred.BTBCorrect                   0                       # Number of correct BTB predictions (this stat may not work properly.
system.cpu0.branchPred.BTBHitPct            86.023532                       # BTB Hit Percentage
system.cpu0.branchPred.BTBHits               76333511                       # Number of BTB hits
system.cpu0.branchPred.BTBLookups            88735616                       # Number of BTB lookups
system.cpu0.branchPred.RASInCorrect                 0                       # Number of incorrect RAS predictions.
system.cpu0.branchPred.condIncorrect          6406261                       # Number of conditional branches incorrect
system.cpu0.branchPred.condPredicted        119863974                       # Number of conditional branches predicted
system.cpu0.branchPred.indirectHits          11654394                       # Number of indirect target hits.
system.cpu0.branchPred.indirectLookups       11747841                       # Number of indirect predictor lookups.
system.cpu0.branchPred.indirectMisses           93447                       # Number of indirect misses.
system.cpu0.branchPred.lookups              155482227                       # Number of BP lookups
system.cpu0.branchPred.usedRAS                      0                       # Number of times the RAS was used to get a target.
system.cpu0.branchPredindirectMispredicted      1052142                       # Number of mispredicted indirect branches.
system.cpu0.commit.amos                        509382                       # Number of atomic instructions committed
system.cpu0.commit.branchMispredicts          4546263                       # The number of times a branch was mispredicted
system.cpu0.commit.branches                 138974414                       # Number of branches committed
system.cpu0.commit.bw_lim_events             17592459                       # number cycles where commit BW limit reached
system.cpu0.commit.commitNonSpecStalls        1532314                       # The number of times commit has been forced to stall to communicate backwards
system.cpu0.commit.commitSquashedInsts       54373313                       # The number of squashed insts skipped by commit
system.cpu0.commit.committedInsts           561804607                       # Number of instructions committed
system.cpu0.commit.committedOps             562315264                       # Number of ops (including micro ops) committed
system.cpu0.commit.committed_per_cycle::samples    887227115                       # Number of insts commited each cycle
system.cpu0.commit.committed_per_cycle::mean     0.633790                       # Number of insts commited each cycle
system.cpu0.commit.committed_per_cycle::stdev     1.435385                       # Number of insts commited each cycle
system.cpu0.commit.committed_per_cycle::underflows            0      0.00%      0.00% # Number of insts commited each cycle
system.cpu0.commit.committed_per_cycle::0    624225057     70.36%     70.36% # Number of insts commited each cycle
system.cpu0.commit.committed_per_cycle::1    156969482     17.69%     88.05% # Number of insts commited each cycle
system.cpu0.commit.committed_per_cycle::2     33955751      3.83%     91.88% # Number of insts commited each cycle
system.cpu0.commit.committed_per_cycle::3     34626427      3.90%     95.78% # Number of insts commited each cycle
system.cpu0.commit.committed_per_cycle::4     12122492      1.37%     97.15% # Number of insts commited each cycle
system.cpu0.commit.committed_per_cycle::5      4360631      0.49%     97.64% # Number of insts commited each cycle
system.cpu0.commit.committed_per_cycle::6      1101508      0.12%     97.76% # Number of insts commited each cycle
system.cpu0.commit.committed_per_cycle::7      2273308      0.26%     98.02% # Number of insts commited each cycle
system.cpu0.commit.committed_per_cycle::8     17592459      1.98%    100.00% # Number of insts commited each cycle
system.cpu0.commit.committed_per_cycle::overflows            0      0.00%    100.00% # Number of insts commited each cycle
system.cpu0.commit.committed_per_cycle::min_value            0                       # Number of insts commited each cycle
system.cpu0.commit.committed_per_cycle::max_value            8                       # Number of insts commited each cycle
system.cpu0.commit.committed_per_cycle::total    887227115                       # Number of insts commited each cycle
system.cpu0.commit.fp_insts                        50                       # Number of committed floating point instructions.
system.cpu0.commit.function_calls            11672079                       # Number of function calls committed.
system.cpu0.commit.int_insts                543448266                       # Number of committed integer instructions.
system.cpu0.commit.loads                    174759987                       # Number of loads committed
system.cpu0.commit.membars                    1019938                       # Number of memory barriers committed
system.cpu0.commit.op_class_0::No_OpClass      1019944      0.18%      0.18% # Class of committed instruction
system.cpu0.commit.op_class_0::IntAlu       311056426     55.32%     55.50% # Class of committed instruction
system.cpu0.commit.op_class_0::IntMult        4137156      0.74%     56.23% # Class of committed instruction
system.cpu0.commit.op_class_0::IntDiv         1017773      0.18%     56.42% # Class of committed instruction
system.cpu0.commit.op_class_0::FloatAdd             0      0.00%     56.42% # Class of committed instruction
system.cpu0.commit.op_class_0::FloatCmp             4      0.00%     56.42% # Class of committed instruction
system.cpu0.commit.op_class_0::FloatCvt            12      0.00%     56.42% # Class of committed instruction
system.cpu0.commit.op_class_0::FloatMult            0      0.00%     56.42% # Class of committed instruction
system.cpu0.commit.op_class_0::FloatMultAcc            0      0.00%     56.42% # Class of committed instruction
system.cpu0.commit.op_class_0::FloatDiv             2      0.00%     56.42% # Class of committed instruction
system.cpu0.commit.op_class_0::FloatMisc            4      0.00%     56.42% # Class of committed instruction
system.cpu0.commit.op_class_0::FloatSqrt            0      0.00%     56.42% # Class of committed instruction
system.cpu0.commit.op_class_0::SimdAdd              0      0.00%     56.42% # Class of committed instruction
system.cpu0.commit.op_class_0::SimdAddAcc            0      0.00%     56.42% # Class of committed instruction
system.cpu0.commit.op_class_0::SimdAlu              0      0.00%     56.42% # Class of committed instruction
system.cpu0.commit.op_class_0::SimdCmp              0      0.00%     56.42% # Class of committed instruction
system.cpu0.commit.op_class_0::SimdCvt              0      0.00%     56.42% # Class of committed instruction
system.cpu0.commit.op_class_0::SimdMisc             0      0.00%     56.42% # Class of committed instruction
system.cpu0.commit.op_class_0::SimdMult             0      0.00%     56.42% # Class of committed instruction
system.cpu0.commit.op_class_0::SimdMultAcc            0      0.00%     56.42% # Class of committed instruction
system.cpu0.commit.op_class_0::SimdShift            0      0.00%     56.42% # Class of committed instruction
system.cpu0.commit.op_class_0::SimdShiftAcc            0      0.00%     56.42% # Class of committed instruction
system.cpu0.commit.op_class_0::SimdDiv              0      0.00%     56.42% # Class of committed instruction
system.cpu0.commit.op_class_0::SimdSqrt             0      0.00%     56.42% # Class of committed instruction
system.cpu0.commit.op_class_0::SimdFloatAdd            0      0.00%     56.42% # Class of committed instruction
system.cpu0.commit.op_class_0::SimdFloatAlu            0      0.00%     56.42% # Class of committed instruction
system.cpu0.commit.op_class_0::SimdFloatCmp            0      0.00%     56.42% # Class of committed instruction
system.cpu0.commit.op_class_0::SimdFloatCvt            0      0.00%     56.42% # Class of committed instruction
system.cpu0.commit.op_class_0::SimdFloatDiv            0      0.00%     56.42% # Class of committed instruction
system.cpu0.commit.op_class_0::SimdFloatMisc            0      0.00%     56.42% # Class of committed instruction
system.cpu0.commit.op_class_0::SimdFloatMult            0      0.00%     56.42% # Class of committed instruction
system.cpu0.commit.op_class_0::SimdFloatMultAcc            0      0.00%     56.42% # Class of committed instruction
system.cpu0.commit.op_class_0::SimdFloatSqrt            0      0.00%     56.42% # Class of committed instruction
system.cpu0.commit.op_class_0::SimdReduceAdd            0      0.00%     56.42% # Class of committed instruction
system.cpu0.commit.op_class_0::SimdReduceAlu            0      0.00%     56.42% # Class of committed instruction
system.cpu0.commit.op_class_0::SimdReduceCmp            0      0.00%     56.42% # Class of committed instruction
system.cpu0.commit.op_class_0::SimdFloatReduceAdd            0      0.00%     56.42% # Class of committed instruction
system.cpu0.commit.op_class_0::SimdFloatReduceCmp            0      0.00%     56.42% # Class of committed instruction
system.cpu0.commit.op_class_0::SimdAes              0      0.00%     56.42% # Class of committed instruction
system.cpu0.commit.op_class_0::SimdAesMix            0      0.00%     56.42% # Class of committed instruction
system.cpu0.commit.op_class_0::SimdSha1Hash            0      0.00%     56.42% # Class of committed instruction
system.cpu0.commit.op_class_0::SimdSha1Hash2            0      0.00%     56.42% # Class of committed instruction
system.cpu0.commit.op_class_0::SimdSha256Hash            0      0.00%     56.42% # Class of committed instruction
system.cpu0.commit.op_class_0::SimdSha256Hash2            0      0.00%     56.42% # Class of committed instruction
system.cpu0.commit.op_class_0::SimdShaSigma2            0      0.00%     56.42% # Class of committed instruction
system.cpu0.commit.op_class_0::SimdShaSigma3            0      0.00%     56.42% # Class of committed instruction
system.cpu0.commit.op_class_0::SimdPredAlu            0      0.00%     56.42% # Class of committed instruction
system.cpu0.commit.op_class_0::MemRead      175269361     31.17%     87.58% # Class of committed instruction
system.cpu0.commit.op_class_0::MemWrite      69814554     12.42%    100.00% # Class of committed instruction
system.cpu0.commit.op_class_0::FloatMemRead            8      0.00%    100.00% # Class of committed instruction
system.cpu0.commit.op_class_0::FloatMemWrite           20      0.00%    100.00% # Class of committed instruction
system.cpu0.commit.op_class_0::IprAccess            0      0.00%    100.00% # Class of committed instruction
system.cpu0.commit.op_class_0::InstPrefetch            0      0.00%    100.00% # Class of committed instruction
system.cpu0.commit.op_class_0::total        562315264                       # Class of committed instruction
system.cpu0.commit.refs                     245083943                       # Number of memory references committed
system.cpu0.commit.swp_count                        0                       # Number of s/w prefetches committed
system.cpu0.commit.vec_insts                        0                       # Number of committed Vector instructions.
system.cpu0.committedInsts                  561804607                       # Number of Instructions Simulated
system.cpu0.committedOps                    562315264                       # Number of Ops (including micro ops) Simulated
system.cpu0.cpi                              1.723885                       # CPI: Cycles Per Instruction
system.cpu0.cpi_total                        1.723885                       # CPI: Total CPI of All Threads
system.cpu0.decode.BlockedCycles            115156503                       # Number of cycles decode is blocked
system.cpu0.decode.BranchMispred              1864583                       # Number of times decode detected a branch misprediction
system.cpu0.decode.BranchResolved            74693677                       # Number of times decode resolved a branch
system.cpu0.decode.DecodedInsts             627656388                       # Number of instructions handled by decode
system.cpu0.decode.IdleCycles               342349199                       # Number of cycles decode is idle
system.cpu0.decode.RunCycles                432198109                       # Number of cycles decode is running
system.cpu0.decode.SquashCycles               4551330                       # Number of cycles decode is squashing
system.cpu0.decode.SquashedInsts              8487823                       # Number of squashed instructions handled by decode
system.cpu0.decode.UnblockCycles              2576304                       # Number of cycles decode is unblocking
system.cpu0.dtb.accesses                            0                       # DTB accesses
system.cpu0.dtb.hits                                0                       # DTB hits
system.cpu0.dtb.misses                              0                       # DTB misses
system.cpu0.dtb.read_accesses                       0                       # DTB read accesses
system.cpu0.dtb.read_hits                           0                       # DTB read hits
system.cpu0.dtb.read_misses                         0                       # DTB read misses
system.cpu0.dtb.write_accesses                      0                       # DTB write accesses
system.cpu0.dtb.write_hits                          0                       # DTB write hits
system.cpu0.dtb.write_misses                        0                       # DTB write misses
system.cpu0.fetch.Branches                  155482227                       # Number of branches that fetch encountered
system.cpu0.fetch.CacheLines                100189994                       # Number of cache lines fetched
system.cpu0.fetch.Cycles                    554704513                       # Number of cycles fetch has run and was not squashing or blocked
system.cpu0.fetch.IcacheSquashes              2334278                       # Number of outstanding Icache misses that were squashed
system.cpu0.fetch.IcacheWaitRetryStallCycles          168                       # Number of stall cycles due to full MSHR
system.cpu0.fetch.Insts                     645466493                       # Number of instructions fetch has processed
system.cpu0.fetch.MiscStallCycles                  51                       # Number of cycles fetch has spent waiting on interrupts, or bad addresses, or out of MSHRs
system.cpu0.fetch.PendingTrapStallCycles          100                       # Number of stall cycles due to pending traps
system.cpu0.fetch.SquashCycles               12822686                       # Number of cycles fetch has spent squashing
system.cpu0.fetch.branchRate                 0.160541                       # Number of branch fetches per cycle
system.cpu0.fetch.icacheStallCycles         335715270                       # Number of cycles fetch is stalled on an Icache miss
system.cpu0.fetch.predictedBranches          87987905                       # Number of branches that fetch has predicted taken
system.cpu0.fetch.rate                       0.666469                       # Number of inst fetches per cycle
system.cpu0.fetch.rateDist::samples         896831445                       # Number of instructions fetched each cycle (Total)
system.cpu0.fetch.rateDist::mean             0.720289                       # Number of instructions fetched each cycle (Total)
system.cpu0.fetch.rateDist::stdev            0.936344                       # Number of instructions fetched each cycle (Total)
system.cpu0.fetch.rateDist::underflows              0      0.00%      0.00% # Number of instructions fetched each cycle (Total)
system.cpu0.fetch.rateDist::0               445489078     49.67%     49.67% # Number of instructions fetched each cycle (Total)
system.cpu0.fetch.rateDist::1               333144405     37.15%     86.82% # Number of instructions fetched each cycle (Total)
system.cpu0.fetch.rateDist::2                61232638      6.83%     93.65% # Number of instructions fetched each cycle (Total)
system.cpu0.fetch.rateDist::3                43525536      4.85%     98.50% # Number of instructions fetched each cycle (Total)
system.cpu0.fetch.rateDist::4                10569055      1.18%     99.68% # Number of instructions fetched each cycle (Total)
system.cpu0.fetch.rateDist::5                 1751092      0.20%     99.88% # Number of instructions fetched each cycle (Total)
system.cpu0.fetch.rateDist::6                   98549      0.01%     99.89% # Number of instructions fetched each cycle (Total)
system.cpu0.fetch.rateDist::7                     464      0.00%     99.89% # Number of instructions fetched each cycle (Total)
system.cpu0.fetch.rateDist::8                 1020628      0.11%    100.00% # Number of instructions fetched each cycle (Total)
system.cpu0.fetch.rateDist::overflows               0      0.00%    100.00% # Number of instructions fetched each cycle (Total)
system.cpu0.fetch.rateDist::min_value               0                       # Number of instructions fetched each cycle (Total)
system.cpu0.fetch.rateDist::max_value               8                       # Number of instructions fetched each cycle (Total)
system.cpu0.fetch.rateDist::total           896831445                       # Number of instructions fetched each cycle (Total)
system.cpu0.fp_regfile_reads                       44                       # number of floating regfile reads
system.cpu0.fp_regfile_writes                      24                       # number of floating regfile writes
system.cpu0.idleCycles                       71655256                       # Total number of cycles that the CPU has spent unscheduled due to idling
system.cpu0.iew.branchMispredicts             4660086                       # Number of branch mispredicts detected at execute
system.cpu0.iew.exec_branches               146449221                       # Number of branches executed
system.cpu0.iew.exec_nop                            0                       # number of nop insts executed
system.cpu0.iew.exec_rate                    0.631680                       # Inst execution rate
system.cpu0.iew.exec_refs                   275415113                       # number of memory reference insts executed
system.cpu0.iew.exec_stores                  77320426                       # Number of stores executed
system.cpu0.iew.exec_swp                            0                       # number of swp insts executed
system.cpu0.iew.iewBlockCycles               89439885                       # Number of cycles IEW is blocking
system.cpu0.iew.iewDispLoadInsts            197420344                       # Number of dispatched load instructions
system.cpu0.iew.iewDispNonSpecInsts            512588                       # Number of dispatched non-speculative instructions
system.cpu0.iew.iewDispSquashedInsts          2222991                       # Number of squashed instructions skipped by dispatch
system.cpu0.iew.iewDispStoreInsts            78365120                       # Number of dispatched store instructions
system.cpu0.iew.iewDispatchedInsts          616672646                       # Number of instructions dispatched to IQ
system.cpu0.iew.iewExecLoadInsts            198094687                       # Number of load instructions executed
system.cpu0.iew.iewExecSquashedInsts          3845305                       # Number of squashed instructions skipped in execute
system.cpu0.iew.iewExecutedInsts            611773450                       # Number of executed instructions
system.cpu0.iew.iewIQFullEvents                489580                       # Number of times the IQ has become full, causing a stall
system.cpu0.iew.iewIdleCycles                       0                       # Number of cycles IEW is idle
system.cpu0.iew.iewLSQFullEvents              2315044                       # Number of times the LSQ has become full, causing a stall
system.cpu0.iew.iewSquashCycles               4551330                       # Number of cycles IEW is squashing
system.cpu0.iew.iewUnblockCycles              3374767                       # Number of cycles IEW is unblocking
system.cpu0.iew.lsq.thread0.blockedLoads            0                       # Number of blocked loads due to partial load-store forwarding
system.cpu0.iew.lsq.thread0.cacheBlocked       137284                       # Number of times an access to memory failed due to the cache being blocked
system.cpu0.iew.lsq.thread0.forwLoads         9478866                       # Number of loads that had data forwarded from stores
system.cpu0.iew.lsq.thread0.ignoredResponses        30464                       # Number of memory responses ignored because the instruction is squashed
system.cpu0.iew.lsq.thread0.invAddrLoads            0                       # Number of loads ignored due to an invalid address
system.cpu0.iew.lsq.thread0.invAddrSwpfs            0                       # Number of software prefetches ignored due to an invalid address
system.cpu0.iew.lsq.thread0.memOrderViolation         5489                       # Number of memory ordering violations
system.cpu0.iew.lsq.thread0.rescheduledLoads      3540102                       # Number of loads that were rescheduled
system.cpu0.iew.lsq.thread0.squashedLoads     22660357                       # Number of loads squashed
system.cpu0.iew.lsq.thread0.squashedStores      8041164                       # Number of stores squashed
system.cpu0.iew.memOrderViolationEvents          5489                       # Number of memory order violations
system.cpu0.iew.predictedNotTakenIncorrect       827940                       # Number of branches that were predicted not taken incorrectly
system.cpu0.iew.predictedTakenIncorrect       3832146                       # Number of branches that were predicted taken incorrectly
system.cpu0.iew.wb_consumers                272627953                       # num instructions consuming a value
system.cpu0.iew.wb_count                    604778981                       # cumulative count of insts written-back
system.cpu0.iew.wb_fanout                    0.836100                       # average fanout of values written-back
system.cpu0.iew.wb_producers                227944228                       # num instructions producing a value
system.cpu0.iew.wb_rate                      0.624458                       # insts written-back per cycle
system.cpu0.iew.wb_sent                     604911942                       # cumulative count of insts sent to commit
system.cpu0.int_regfile_reads               744334615                       # number of integer regfile reads
system.cpu0.int_regfile_writes              386732956                       # number of integer regfile writes
system.cpu0.ipc                              0.580085                       # IPC: Instructions Per Cycle
system.cpu0.ipc_total                        0.580085                       # IPC: Total IPC of All Threads
system.cpu0.iq.FU_type_0::No_OpClass          1020955      0.17%      0.17% # Type of FU issued
system.cpu0.iq.FU_type_0::IntAlu            332283572     53.98%     54.14% # Type of FU issued
system.cpu0.iq.FU_type_0::IntMult             4213172      0.68%     54.83% # Type of FU issued
system.cpu0.iq.FU_type_0::IntDiv              1018061      0.17%     54.99% # Type of FU issued
system.cpu0.iq.FU_type_0::FloatAdd                  0      0.00%     54.99% # Type of FU issued
system.cpu0.iq.FU_type_0::FloatCmp                  4      0.00%     54.99% # Type of FU issued
system.cpu0.iq.FU_type_0::FloatCvt                 12      0.00%     54.99% # Type of FU issued
system.cpu0.iq.FU_type_0::FloatMult                 0      0.00%     54.99% # Type of FU issued
system.cpu0.iq.FU_type_0::FloatMultAcc              0      0.00%     54.99% # Type of FU issued
system.cpu0.iq.FU_type_0::FloatDiv                  2      0.00%     54.99% # Type of FU issued
system.cpu0.iq.FU_type_0::FloatMisc                 4      0.00%     54.99% # Type of FU issued
system.cpu0.iq.FU_type_0::FloatSqrt                 0      0.00%     54.99% # Type of FU issued
system.cpu0.iq.FU_type_0::SimdAdd                   0      0.00%     54.99% # Type of FU issued
system.cpu0.iq.FU_type_0::SimdAddAcc                0      0.00%     54.99% # Type of FU issued
system.cpu0.iq.FU_type_0::SimdAlu                   0      0.00%     54.99% # Type of FU issued
system.cpu0.iq.FU_type_0::SimdCmp                   0      0.00%     54.99% # Type of FU issued
system.cpu0.iq.FU_type_0::SimdCvt                   0      0.00%     54.99% # Type of FU issued
system.cpu0.iq.FU_type_0::SimdMisc                  0      0.00%     54.99% # Type of FU issued
system.cpu0.iq.FU_type_0::SimdMult                  0      0.00%     54.99% # Type of FU issued
system.cpu0.iq.FU_type_0::SimdMultAcc               0      0.00%     54.99% # Type of FU issued
system.cpu0.iq.FU_type_0::SimdShift                 0      0.00%     54.99% # Type of FU issued
system.cpu0.iq.FU_type_0::SimdShiftAcc              0      0.00%     54.99% # Type of FU issued
system.cpu0.iq.FU_type_0::SimdDiv                   0      0.00%     54.99% # Type of FU issued
system.cpu0.iq.FU_type_0::SimdSqrt                  0      0.00%     54.99% # Type of FU issued
system.cpu0.iq.FU_type_0::SimdFloatAdd              0      0.00%     54.99% # Type of FU issued
system.cpu0.iq.FU_type_0::SimdFloatAlu              0      0.00%     54.99% # Type of FU issued
system.cpu0.iq.FU_type_0::SimdFloatCmp              0      0.00%     54.99% # Type of FU issued
system.cpu0.iq.FU_type_0::SimdFloatCvt              0      0.00%     54.99% # Type of FU issued
system.cpu0.iq.FU_type_0::SimdFloatDiv              0      0.00%     54.99% # Type of FU issued
system.cpu0.iq.FU_type_0::SimdFloatMisc             0      0.00%     54.99% # Type of FU issued
system.cpu0.iq.FU_type_0::SimdFloatMult             0      0.00%     54.99% # Type of FU issued
system.cpu0.iq.FU_type_0::SimdFloatMultAcc            0      0.00%     54.99% # Type of FU issued
system.cpu0.iq.FU_type_0::SimdFloatSqrt             0      0.00%     54.99% # Type of FU issued
system.cpu0.iq.FU_type_0::SimdReduceAdd             0      0.00%     54.99% # Type of FU issued
system.cpu0.iq.FU_type_0::SimdReduceAlu             0      0.00%     54.99% # Type of FU issued
system.cpu0.iq.FU_type_0::SimdReduceCmp             0      0.00%     54.99% # Type of FU issued
system.cpu0.iq.FU_type_0::SimdFloatReduceAdd            0      0.00%     54.99% # Type of FU issued
system.cpu0.iq.FU_type_0::SimdFloatReduceCmp            0      0.00%     54.99% # Type of FU issued
system.cpu0.iq.FU_type_0::SimdAes                   0      0.00%     54.99% # Type of FU issued
system.cpu0.iq.FU_type_0::SimdAesMix                0      0.00%     54.99% # Type of FU issued
system.cpu0.iq.FU_type_0::SimdSha1Hash              0      0.00%     54.99% # Type of FU issued
system.cpu0.iq.FU_type_0::SimdSha1Hash2             0      0.00%     54.99% # Type of FU issued
system.cpu0.iq.FU_type_0::SimdSha256Hash            0      0.00%     54.99% # Type of FU issued
system.cpu0.iq.FU_type_0::SimdSha256Hash2            0      0.00%     54.99% # Type of FU issued
system.cpu0.iq.FU_type_0::SimdShaSigma2             0      0.00%     54.99% # Type of FU issued
system.cpu0.iq.FU_type_0::SimdShaSigma3             0      0.00%     54.99% # Type of FU issued
system.cpu0.iq.FU_type_0::SimdPredAlu               0      0.00%     54.99% # Type of FU issued
system.cpu0.iq.FU_type_0::MemRead           199902666     32.47%     87.46% # Type of FU issued
system.cpu0.iq.FU_type_0::MemWrite           77180277     12.54%    100.00% # Type of FU issued
system.cpu0.iq.FU_type_0::FloatMemRead             10      0.00%    100.00% # Type of FU issued
system.cpu0.iq.FU_type_0::FloatMemWrite            20      0.00%    100.00% # Type of FU issued
system.cpu0.iq.FU_type_0::IprAccess                 0      0.00%    100.00% # Type of FU issued
system.cpu0.iq.FU_type_0::InstPrefetch              0      0.00%    100.00% # Type of FU issued
system.cpu0.iq.FU_type_0::total             615618755                       # Type of FU issued
system.cpu0.iq.fp_alu_accesses                     56                       # Number of floating point alu accesses
system.cpu0.iq.fp_inst_queue_reads                108                       # Number of floating instruction queue reads
system.cpu0.iq.fp_inst_queue_wakeup_accesses           52                       # Number of floating instruction queue wakeup accesses
system.cpu0.iq.fp_inst_queue_writes                54                       # Number of floating instruction queue writes
system.cpu0.iq.fu_busy_cnt                     882501                       # FU busy when requested
system.cpu0.iq.fu_busy_rate                  0.001434                       # FU busy rate (busy events/executed inst)
system.cpu0.iq.fu_full::No_OpClass                  0      0.00%      0.00% # attempts to use FU when none available
system.cpu0.iq.fu_full::IntAlu                 170281     19.30%     19.30% # attempts to use FU when none available
system.cpu0.iq.fu_full::IntMult                    16      0.00%     19.30% # attempts to use FU when none available
system.cpu0.iq.fu_full::IntDiv                      0      0.00%     19.30% # attempts to use FU when none available
system.cpu0.iq.fu_full::FloatAdd                    0      0.00%     19.30% # attempts to use FU when none available
system.cpu0.iq.fu_full::FloatCmp                    0      0.00%     19.30% # attempts to use FU when none available
system.cpu0.iq.fu_full::FloatCvt                    0      0.00%     19.30% # attempts to use FU when none available
system.cpu0.iq.fu_full::FloatMult                   0      0.00%     19.30% # attempts to use FU when none available
system.cpu0.iq.fu_full::FloatMultAcc                0      0.00%     19.30% # attempts to use FU when none available
system.cpu0.iq.fu_full::FloatDiv                    0      0.00%     19.30% # attempts to use FU when none available
system.cpu0.iq.fu_full::FloatMisc                   0      0.00%     19.30% # attempts to use FU when none available
system.cpu0.iq.fu_full::FloatSqrt                   0      0.00%     19.30% # attempts to use FU when none available
system.cpu0.iq.fu_full::SimdAdd                     0      0.00%     19.30% # attempts to use FU when none available
system.cpu0.iq.fu_full::SimdAddAcc                  0      0.00%     19.30% # attempts to use FU when none available
system.cpu0.iq.fu_full::SimdAlu                     0      0.00%     19.30% # attempts to use FU when none available
system.cpu0.iq.fu_full::SimdCmp                     0      0.00%     19.30% # attempts to use FU when none available
system.cpu0.iq.fu_full::SimdCvt                     0      0.00%     19.30% # attempts to use FU when none available
system.cpu0.iq.fu_full::SimdMisc                    0      0.00%     19.30% # attempts to use FU when none available
system.cpu0.iq.fu_full::SimdMult                    0      0.00%     19.30% # attempts to use FU when none available
system.cpu0.iq.fu_full::SimdMultAcc                 0      0.00%     19.30% # attempts to use FU when none available
system.cpu0.iq.fu_full::SimdShift                   0      0.00%     19.30% # attempts to use FU when none available
system.cpu0.iq.fu_full::SimdShiftAcc                0      0.00%     19.30% # attempts to use FU when none available
system.cpu0.iq.fu_full::SimdDiv                     0      0.00%     19.30% # attempts to use FU when none available
system.cpu0.iq.fu_full::SimdSqrt                    0      0.00%     19.30% # attempts to use FU when none available
system.cpu0.iq.fu_full::SimdFloatAdd                0      0.00%     19.30% # attempts to use FU when none available
system.cpu0.iq.fu_full::SimdFloatAlu                0      0.00%     19.30% # attempts to use FU when none available
system.cpu0.iq.fu_full::SimdFloatCmp                0      0.00%     19.30% # attempts to use FU when none available
system.cpu0.iq.fu_full::SimdFloatCvt                0      0.00%     19.30% # attempts to use FU when none available
system.cpu0.iq.fu_full::SimdFloatDiv                0      0.00%     19.30% # attempts to use FU when none available
system.cpu0.iq.fu_full::SimdFloatMisc               0      0.00%     19.30% # attempts to use FU when none available
system.cpu0.iq.fu_full::SimdFloatMult               0      0.00%     19.30% # attempts to use FU when none available
system.cpu0.iq.fu_full::SimdFloatMultAcc            0      0.00%     19.30% # attempts to use FU when none available
system.cpu0.iq.fu_full::SimdFloatSqrt               0      0.00%     19.30% # attempts to use FU when none available
system.cpu0.iq.fu_full::SimdReduceAdd               0      0.00%     19.30% # attempts to use FU when none available
system.cpu0.iq.fu_full::SimdReduceAlu               0      0.00%     19.30% # attempts to use FU when none available
system.cpu0.iq.fu_full::SimdReduceCmp               0      0.00%     19.30% # attempts to use FU when none available
system.cpu0.iq.fu_full::SimdFloatReduceAdd            0      0.00%     19.30% # attempts to use FU when none available
system.cpu0.iq.fu_full::SimdFloatReduceCmp            0      0.00%     19.30% # attempts to use FU when none available
system.cpu0.iq.fu_full::SimdAes                     0      0.00%     19.30% # attempts to use FU when none available
system.cpu0.iq.fu_full::SimdAesMix                  0      0.00%     19.30% # attempts to use FU when none available
system.cpu0.iq.fu_full::SimdSha1Hash                0      0.00%     19.30% # attempts to use FU when none available
system.cpu0.iq.fu_full::SimdSha1Hash2               0      0.00%     19.30% # attempts to use FU when none available
system.cpu0.iq.fu_full::SimdSha256Hash              0      0.00%     19.30% # attempts to use FU when none available
system.cpu0.iq.fu_full::SimdSha256Hash2             0      0.00%     19.30% # attempts to use FU when none available
system.cpu0.iq.fu_full::SimdShaSigma2               0      0.00%     19.30% # attempts to use FU when none available
system.cpu0.iq.fu_full::SimdShaSigma3               0      0.00%     19.30% # attempts to use FU when none available
system.cpu0.iq.fu_full::SimdPredAlu                 0      0.00%     19.30% # attempts to use FU when none available
system.cpu0.iq.fu_full::MemRead                609752     69.09%     88.39% # attempts to use FU when none available
system.cpu0.iq.fu_full::MemWrite               102448     11.61%    100.00% # attempts to use FU when none available
system.cpu0.iq.fu_full::FloatMemRead                0      0.00%    100.00% # attempts to use FU when none available
system.cpu0.iq.fu_full::FloatMemWrite               4      0.00%    100.00% # attempts to use FU when none available
system.cpu0.iq.fu_full::IprAccess                   0      0.00%    100.00% # attempts to use FU when none available
system.cpu0.iq.fu_full::InstPrefetch                0      0.00%    100.00% # attempts to use FU when none available
system.cpu0.iq.int_alu_accesses             615480245                       # Number of integer alu accesses
system.cpu0.iq.int_inst_queue_reads        2129028348                       # Number of integer instruction queue reads
system.cpu0.iq.int_inst_queue_wakeup_accesses    604778929                       # Number of integer instruction queue wakeup accesses
system.cpu0.iq.int_inst_queue_writes        671034531                       # Number of integer instruction queue writes
system.cpu0.iq.iqInstsAdded                 615139940                       # Number of instructions added to the IQ (excludes non-spec)
system.cpu0.iq.iqInstsIssued                615618755                       # Number of instructions issued
system.cpu0.iq.iqNonSpecInstsAdded            1532706                       # Number of non-speculative instructions added to the IQ
system.cpu0.iq.iqSquashedInstsExamined       54357379                       # Number of squashed instructions iterated over during squash; mainly for profiling
system.cpu0.iq.iqSquashedInstsIssued            77000                       # Number of squashed instructions issued
system.cpu0.iq.iqSquashedNonSpecRemoved           392                       # Number of squashed non-spec instructions that were removed
system.cpu0.iq.iqSquashedOperandsExamined     12264945                       # Number of squashed operands that are examined and possibly removed from graph
system.cpu0.iq.issued_per_cycle::samples    896831445                       # Number of insts issued each cycle
system.cpu0.iq.issued_per_cycle::mean        0.686438                       # Number of insts issued each cycle
system.cpu0.iq.issued_per_cycle::stdev       0.873552                       # Number of insts issued each cycle
system.cpu0.iq.issued_per_cycle::underflows            0      0.00%      0.00% # Number of insts issued each cycle
system.cpu0.iq.issued_per_cycle::0          469714014     52.37%     52.37% # Number of insts issued each cycle
system.cpu0.iq.issued_per_cycle::1          284835914     31.76%     84.14% # Number of insts issued each cycle
system.cpu0.iq.issued_per_cycle::2          104396134     11.64%     95.78% # Number of insts issued each cycle
system.cpu0.iq.issued_per_cycle::3           31138876      3.47%     99.25% # Number of insts issued each cycle
system.cpu0.iq.issued_per_cycle::4            5874047      0.65%     99.90% # Number of insts issued each cycle
system.cpu0.iq.issued_per_cycle::5             389680      0.04%     99.95% # Number of insts issued each cycle
system.cpu0.iq.issued_per_cycle::6             324147      0.04%     99.98% # Number of insts issued each cycle
system.cpu0.iq.issued_per_cycle::7              84589      0.01%     99.99% # Number of insts issued each cycle
system.cpu0.iq.issued_per_cycle::8              74044      0.01%    100.00% # Number of insts issued each cycle
system.cpu0.iq.issued_per_cycle::overflows            0      0.00%    100.00% # Number of insts issued each cycle
system.cpu0.iq.issued_per_cycle::min_value            0                       # Number of insts issued each cycle
system.cpu0.iq.issued_per_cycle::max_value            8                       # Number of insts issued each cycle
system.cpu0.iq.issued_per_cycle::total      896831445                       # Number of insts issued each cycle
system.cpu0.iq.rate                          0.635650                       # Inst issue rate
system.cpu0.iq.vec_alu_accesses                     0                       # Number of vector alu accesses
system.cpu0.iq.vec_inst_queue_reads                 0                       # Number of vector instruction queue reads
system.cpu0.iq.vec_inst_queue_wakeup_accesses            0                       # Number of vector instruction queue wakeup accesses
system.cpu0.iq.vec_inst_queue_writes                0                       # Number of vector instruction queue writes
system.cpu0.itb.accesses                            0                       # DTB accesses
system.cpu0.itb.hits                                0                       # DTB hits
system.cpu0.itb.misses                              0                       # DTB misses
system.cpu0.itb.read_accesses                       0                       # DTB read accesses
system.cpu0.itb.read_hits                           0                       # DTB read hits
system.cpu0.itb.read_misses                         0                       # DTB read misses
system.cpu0.itb.write_accesses                      0                       # DTB write accesses
system.cpu0.itb.write_hits                          0                       # DTB write hits
system.cpu0.itb.write_misses                        0                       # DTB write misses
system.cpu0.memDep0.conflictingLoads          7505687                       # Number of conflicting loads.
system.cpu0.memDep0.conflictingStores         1402896                       # Number of conflicting stores.
system.cpu0.memDep0.insertedLoads           197420344                       # Number of loads inserted to the mem dependence unit.
system.cpu0.memDep0.insertedStores           78365120                       # Number of stores inserted to the mem dependence unit.
system.cpu0.misc_regfile_reads                   1025                       # number of misc regfile reads
system.cpu0.misc_regfile_writes                    22                       # number of misc regfile writes
system.cpu0.numCycles                       968486701                       # number of cpu cycles simulated
system.cpu0.numWorkItemsCompleted                   0                       # number of work items this cpu completed
system.cpu0.numWorkItemsStarted                     0                       # number of work items this cpu started
system.cpu0.quiesceCycles                    12629222                       # Total number of cycles that CPU has spent quiesced or waiting for an interrupt
system.cpu0.rename.BlockCycles               96786965                       # Number of cycles rename is blocking
system.cpu0.rename.CommittedMaps            357825476                       # Number of HB maps that are committed
system.cpu0.rename.IQFullEvents               4171531                       # Number of times rename has blocked due to IQ full
system.cpu0.rename.IdleCycles               346876193                       # Number of cycles rename is idle
system.cpu0.rename.LQFullEvents               4773165                       # Number of times rename has blocked due to LQ full
system.cpu0.rename.ROBFullEvents                 5768                       # Number of times rename has blocked due to ROB full
system.cpu0.rename.RenameLookups            761363912                       # Number of register rename lookups that rename has made
system.cpu0.rename.RenamedInsts             624412447                       # Number of instructions processed by rename
system.cpu0.rename.RenamedOperands          400349541                       # Number of destination operands rename has renamed
system.cpu0.rename.RunCycles                429897965                       # Number of cycles rename is running
system.cpu0.rename.SQFullEvents              10013707                       # Number of times rename has blocked due to SQ full
system.cpu0.rename.SquashCycles               4551330                       # Number of cycles rename is squashing
system.cpu0.rename.UnblockCycles             18617015                       # Number of cycles rename is unblocking
system.cpu0.rename.UndoneMaps                42524061                       # Number of HB maps that are undone due to squashing
system.cpu0.rename.fp_rename_lookups               44                       # Number of floating rename lookups
system.cpu0.rename.int_rename_lookups       761363868                       # Number of integer rename lookups
system.cpu0.rename.serializeStallCycles        101977                       # count of cycles rename stalled for serializing inst
system.cpu0.rename.serializingInsts              3100                       # count of serializing insts renamed
system.cpu0.rename.skidInsts                  8072095                       # count of insts added to the skid buffer
system.cpu0.rename.tempSerializingInsts          3089                       # count of temporary serializing insts renamed
system.cpu0.rob.rob_reads                  1486310441                       # The number of ROB reads
system.cpu0.rob.rob_writes                 1242988837                       # The number of ROB writes
system.cpu0.timesIdled                       11595913                       # Number of times that the entire CPU went into an idle state and unscheduled itself
system.cpu0.workload.numSyscalls                  992                       # Number of system calls
system.cpu1.branchPred.BTBCorrect                   0                       # Number of correct BTB predictions (this stat may not work properly.
system.cpu1.branchPred.BTBHitPct            73.331902                       # BTB Hit Percentage
system.cpu1.branchPred.BTBHits                3141744                       # Number of BTB hits
system.cpu1.branchPred.BTBLookups             4284280                       # Number of BTB lookups
system.cpu1.branchPred.RASInCorrect                 0                       # Number of incorrect RAS predictions.
system.cpu1.branchPred.condIncorrect           581481                       # Number of conditional branches incorrect
system.cpu1.branchPred.condPredicted          5621766                       # Number of conditional branches predicted
system.cpu1.branchPred.indirectHits            137916                       # Number of indirect target hits.
system.cpu1.branchPred.indirectLookups         187778                       # Number of indirect predictor lookups.
system.cpu1.branchPred.indirectMisses           49862                       # Number of indirect misses.
system.cpu1.branchPred.lookups                6303931                       # Number of BP lookups
system.cpu1.branchPred.usedRAS                      0                       # Number of times the RAS was used to get a target.
system.cpu1.branchPredindirectMispredicted         8865                       # Number of mispredicted indirect branches.
system.cpu1.commit.amos                        509192                       # Number of atomic instructions committed
system.cpu1.commit.branchMispredicts           385550                       # The number of times a branch was mispredicted
system.cpu1.commit.branches                   4420327                       # Number of branches committed
system.cpu1.commit.bw_lim_events               513926                       # number cycles where commit BW limit reached
system.cpu1.commit.commitNonSpecStalls        1528255                       # The number of times commit has been forced to stall to communicate backwards
system.cpu1.commit.commitSquashedInsts        4490573                       # The number of squashed insts skipped by commit
system.cpu1.commit.committedInsts            19247248                       # Number of instructions committed
system.cpu1.commit.committedOps              19756648                       # Number of ops (including micro ops) committed
system.cpu1.commit.committed_per_cycle::samples    115417300                       # Number of insts commited each cycle
system.cpu1.commit.committed_per_cycle::mean     0.171176                       # Number of insts commited each cycle
system.cpu1.commit.committed_per_cycle::stdev     0.817335                       # Number of insts commited each cycle
system.cpu1.commit.committed_per_cycle::underflows            0      0.00%      0.00% # Number of insts commited each cycle
system.cpu1.commit.committed_per_cycle::0    107130801     92.82%     92.82% # Number of insts commited each cycle
system.cpu1.commit.committed_per_cycle::1      4159452      3.60%     96.42% # Number of insts commited each cycle
system.cpu1.commit.committed_per_cycle::2      1421600      1.23%     97.66% # Number of insts commited each cycle
system.cpu1.commit.committed_per_cycle::3      1272058      1.10%     98.76% # Number of insts commited each cycle
system.cpu1.commit.committed_per_cycle::4       323774      0.28%     99.04% # Number of insts commited each cycle
system.cpu1.commit.committed_per_cycle::5       115259      0.10%     99.14% # Number of insts commited each cycle
system.cpu1.commit.committed_per_cycle::6       407987      0.35%     99.49% # Number of insts commited each cycle
system.cpu1.commit.committed_per_cycle::7        72443      0.06%     99.55% # Number of insts commited each cycle
system.cpu1.commit.committed_per_cycle::8       513926      0.45%    100.00% # Number of insts commited each cycle
system.cpu1.commit.committed_per_cycle::overflows            0      0.00%    100.00% # Number of insts commited each cycle
system.cpu1.commit.committed_per_cycle::min_value            0                       # Number of insts commited each cycle
system.cpu1.commit.committed_per_cycle::max_value            8                       # Number of insts commited each cycle
system.cpu1.commit.committed_per_cycle::total    115417300                       # Number of insts commited each cycle
system.cpu1.commit.fp_insts                        12                       # Number of committed floating point instructions.
system.cpu1.commit.function_calls              227580                       # Number of function calls committed.
system.cpu1.commit.int_insts                 18555885                       # Number of committed integer instructions.
system.cpu1.commit.loads                      5320721                       # Number of loads committed
system.cpu1.commit.membars                    1018451                       # Number of memory barriers committed
system.cpu1.commit.op_class_0::No_OpClass      1018451      5.15%      5.15% # Class of committed instruction
system.cpu1.commit.op_class_0::IntAlu        11648287     58.96%     64.11% # Class of committed instruction
system.cpu1.commit.op_class_0::IntMult             42      0.00%     64.11% # Class of committed instruction
system.cpu1.commit.op_class_0::IntDiv              84      0.00%     64.11% # Class of committed instruction
system.cpu1.commit.op_class_0::FloatAdd             0      0.00%     64.11% # Class of committed instruction
system.cpu1.commit.op_class_0::FloatCmp             0      0.00%     64.11% # Class of committed instruction
system.cpu1.commit.op_class_0::FloatCvt             0      0.00%     64.11% # Class of committed instruction
system.cpu1.commit.op_class_0::FloatMult            0      0.00%     64.11% # Class of committed instruction
system.cpu1.commit.op_class_0::FloatMultAcc            0      0.00%     64.11% # Class of committed instruction
system.cpu1.commit.op_class_0::FloatDiv             0      0.00%     64.11% # Class of committed instruction
system.cpu1.commit.op_class_0::FloatMisc            0      0.00%     64.11% # Class of committed instruction
system.cpu1.commit.op_class_0::FloatSqrt            0      0.00%     64.11% # Class of committed instruction
system.cpu1.commit.op_class_0::SimdAdd              0      0.00%     64.11% # Class of committed instruction
system.cpu1.commit.op_class_0::SimdAddAcc            0      0.00%     64.11% # Class of committed instruction
system.cpu1.commit.op_class_0::SimdAlu              0      0.00%     64.11% # Class of committed instruction
system.cpu1.commit.op_class_0::SimdCmp              0      0.00%     64.11% # Class of committed instruction
system.cpu1.commit.op_class_0::SimdCvt              0      0.00%     64.11% # Class of committed instruction
system.cpu1.commit.op_class_0::SimdMisc             0      0.00%     64.11% # Class of committed instruction
system.cpu1.commit.op_class_0::SimdMult             0      0.00%     64.11% # Class of committed instruction
system.cpu1.commit.op_class_0::SimdMultAcc            0      0.00%     64.11% # Class of committed instruction
system.cpu1.commit.op_class_0::SimdShift            0      0.00%     64.11% # Class of committed instruction
system.cpu1.commit.op_class_0::SimdShiftAcc            0      0.00%     64.11% # Class of committed instruction
system.cpu1.commit.op_class_0::SimdDiv              0      0.00%     64.11% # Class of committed instruction
system.cpu1.commit.op_class_0::SimdSqrt             0      0.00%     64.11% # Class of committed instruction
system.cpu1.commit.op_class_0::SimdFloatAdd            0      0.00%     64.11% # Class of committed instruction
system.cpu1.commit.op_class_0::SimdFloatAlu            0      0.00%     64.11% # Class of committed instruction
system.cpu1.commit.op_class_0::SimdFloatCmp            0      0.00%     64.11% # Class of committed instruction
system.cpu1.commit.op_class_0::SimdFloatCvt            0      0.00%     64.11% # Class of committed instruction
system.cpu1.commit.op_class_0::SimdFloatDiv            0      0.00%     64.11% # Class of committed instruction
system.cpu1.commit.op_class_0::SimdFloatMisc            0      0.00%     64.11% # Class of committed instruction
system.cpu1.commit.op_class_0::SimdFloatMult            0      0.00%     64.11% # Class of committed instruction
system.cpu1.commit.op_class_0::SimdFloatMultAcc            0      0.00%     64.11% # Class of committed instruction
system.cpu1.commit.op_class_0::SimdFloatSqrt            0      0.00%     64.11% # Class of committed instruction
system.cpu1.commit.op_class_0::SimdReduceAdd            0      0.00%     64.11% # Class of committed instruction
system.cpu1.commit.op_class_0::SimdReduceAlu            0      0.00%     64.11% # Class of committed instruction
system.cpu1.commit.op_class_0::SimdReduceCmp            0      0.00%     64.11% # Class of committed instruction
system.cpu1.commit.op_class_0::SimdFloatReduceAdd            0      0.00%     64.11% # Class of committed instruction
system.cpu1.commit.op_class_0::SimdFloatReduceCmp            0      0.00%     64.11% # Class of committed instruction
system.cpu1.commit.op_class_0::SimdAes              0      0.00%     64.11% # Class of committed instruction
system.cpu1.commit.op_class_0::SimdAesMix            0      0.00%     64.11% # Class of committed instruction
system.cpu1.commit.op_class_0::SimdSha1Hash            0      0.00%     64.11% # Class of committed instruction
system.cpu1.commit.op_class_0::SimdSha1Hash2            0      0.00%     64.11% # Class of committed instruction
system.cpu1.commit.op_class_0::SimdSha256Hash            0      0.00%     64.11% # Class of committed instruction
system.cpu1.commit.op_class_0::SimdSha256Hash2            0      0.00%     64.11% # Class of committed instruction
system.cpu1.commit.op_class_0::SimdShaSigma2            0      0.00%     64.11% # Class of committed instruction
system.cpu1.commit.op_class_0::SimdShaSigma3            0      0.00%     64.11% # Class of committed instruction
system.cpu1.commit.op_class_0::SimdPredAlu            0      0.00%     64.11% # Class of committed instruction
system.cpu1.commit.op_class_0::MemRead        5829913     29.51%     93.62% # Class of committed instruction
system.cpu1.commit.op_class_0::MemWrite       1259859      6.38%    100.00% # Class of committed instruction
system.cpu1.commit.op_class_0::FloatMemRead            0      0.00%    100.00% # Class of committed instruction
system.cpu1.commit.op_class_0::FloatMemWrite           12      0.00%    100.00% # Class of committed instruction
system.cpu1.commit.op_class_0::IprAccess            0      0.00%    100.00% # Class of committed instruction
system.cpu1.commit.op_class_0::InstPrefetch            0      0.00%    100.00% # Class of committed instruction
system.cpu1.commit.op_class_0::total         19756648                       # Class of committed instruction
system.cpu1.commit.refs                       7089784                       # Number of memory references committed
system.cpu1.commit.swp_count                        0                       # Number of s/w prefetches committed
system.cpu1.commit.vec_insts                        0                       # Number of committed Vector instructions.
system.cpu1.committedInsts                   19247248                       # Number of Instructions Simulated
system.cpu1.committedOps                     19756648                       # Number of Ops (including micro ops) Simulated
system.cpu1.cpi                              6.071627                       # CPI: Cycles Per Instruction
system.cpu1.cpi_total                        6.071627                       # CPI: Total CPI of All Threads
system.cpu1.decode.BlockedCycles             99676741                       # Number of cycles decode is blocked
system.cpu1.decode.BranchMispred               200817                       # Number of times decode detected a branch misprediction
system.cpu1.decode.BranchResolved             2922207                       # Number of times decode resolved a branch
system.cpu1.decode.DecodedInsts              25842286                       # Number of instructions handled by decode
system.cpu1.decode.IdleCycles                 4504954                       # Number of cycles decode is idle
system.cpu1.decode.RunCycles                 10628860                       # Number of cycles decode is running
system.cpu1.decode.SquashCycles                386007                       # Number of cycles decode is squashing
system.cpu1.decode.SquashedInsts               347805                       # Number of squashed instructions handled by decode
system.cpu1.decode.UnblockCycles              1037539                       # Number of cycles decode is unblocking
system.cpu1.dtb.accesses                            0                       # DTB accesses
system.cpu1.dtb.hits                                0                       # DTB hits
system.cpu1.dtb.misses                              0                       # DTB misses
system.cpu1.dtb.read_accesses                       0                       # DTB read accesses
system.cpu1.dtb.read_hits                           0                       # DTB read hits
system.cpu1.dtb.read_misses                         0                       # DTB read misses
system.cpu1.dtb.write_accesses                      0                       # DTB write accesses
system.cpu1.dtb.write_hits                          0                       # DTB write hits
system.cpu1.dtb.write_misses                        0                       # DTB write misses
system.cpu1.fetch.Branches                    6303931                       # Number of branches that fetch encountered
system.cpu1.fetch.CacheLines                  4127861                       # Number of cache lines fetched
system.cpu1.fetch.Cycles                    110932787                       # Number of cycles fetch has run and was not squashing or blocked
system.cpu1.fetch.IcacheSquashes                81379                       # Number of outstanding Icache misses that were squashed
system.cpu1.fetch.Insts                      28030103                       # Number of instructions fetch has processed
system.cpu1.fetch.MiscStallCycles                   1                       # Number of cycles fetch has spent waiting on interrupts, or bad addresses, or out of MSHRs
system.cpu1.fetch.SquashCycles                1163876                       # Number of cycles fetch has spent squashing
system.cpu1.fetch.branchRate                 0.053943                       # Number of branch fetches per cycle
system.cpu1.fetch.icacheStallCycles           4719375                       # Number of cycles fetch is stalled on an Icache miss
system.cpu1.fetch.predictedBranches           3279660                       # Number of branches that fetch has predicted taken
system.cpu1.fetch.rate                       0.239856                       # Number of inst fetches per cycle
system.cpu1.fetch.rateDist::samples         116234101                       # Number of instructions fetched each cycle (Total)
system.cpu1.fetch.rateDist::mean             0.247679                       # Number of instructions fetched each cycle (Total)
system.cpu1.fetch.rateDist::stdev            0.709835                       # Number of instructions fetched each cycle (Total)
system.cpu1.fetch.rateDist::underflows              0      0.00%      0.00% # Number of instructions fetched each cycle (Total)
system.cpu1.fetch.rateDist::0                98804663     85.00%     85.00% # Number of instructions fetched each cycle (Total)
system.cpu1.fetch.rateDist::1                10482795      9.02%     94.02% # Number of instructions fetched each cycle (Total)
system.cpu1.fetch.rateDist::2                 4202882      3.62%     97.64% # Number of instructions fetched each cycle (Total)
system.cpu1.fetch.rateDist::3                 1788874      1.54%     99.18% # Number of instructions fetched each cycle (Total)
system.cpu1.fetch.rateDist::4                  539363      0.46%     99.64% # Number of instructions fetched each cycle (Total)
system.cpu1.fetch.rateDist::5                  117382      0.10%     99.74% # Number of instructions fetched each cycle (Total)
system.cpu1.fetch.rateDist::6                  297954      0.26%    100.00% # Number of instructions fetched each cycle (Total)
system.cpu1.fetch.rateDist::7                      11      0.00%    100.00% # Number of instructions fetched each cycle (Total)
system.cpu1.fetch.rateDist::8                     177      0.00%    100.00% # Number of instructions fetched each cycle (Total)
system.cpu1.fetch.rateDist::overflows               0      0.00%    100.00% # Number of instructions fetched each cycle (Total)
system.cpu1.fetch.rateDist::min_value               0                       # Number of instructions fetched each cycle (Total)
system.cpu1.fetch.rateDist::max_value               8                       # Number of instructions fetched each cycle (Total)
system.cpu1.fetch.rateDist::total           116234101                       # Number of instructions fetched each cycle (Total)
system.cpu1.fp_regfile_reads                       12                       # number of floating regfile reads
system.cpu1.idleCycles                         628019                       # Total number of cycles that the CPU has spent unscheduled due to idling
system.cpu1.iew.branchMispredicts              405370                       # Number of branch mispredicts detected at execute
system.cpu1.iew.exec_branches                 4996471                       # Number of branches executed
system.cpu1.iew.exec_nop                            0                       # number of nop insts executed
system.cpu1.iew.exec_rate                    0.187202                       # Inst execution rate
system.cpu1.iew.exec_refs                     7763621                       # number of memory reference insts executed
system.cpu1.iew.exec_stores                   1853950                       # Number of stores executed
system.cpu1.iew.exec_swp                            0                       # number of swp insts executed
system.cpu1.iew.iewBlockCycles               85906495                       # Number of cycles IEW is blocking
system.cpu1.iew.iewDispLoadInsts              6599691                       # Number of dispatched load instructions
system.cpu1.iew.iewDispNonSpecInsts            605604                       # Number of dispatched non-speculative instructions
system.cpu1.iew.iewDispSquashedInsts           483943                       # Number of squashed instructions skipped by dispatch
system.cpu1.iew.iewDispStoreInsts             2123189                       # Number of dispatched store instructions
system.cpu1.iew.iewDispatchedInsts           24241933                       # Number of instructions dispatched to IQ
system.cpu1.iew.iewExecLoadInsts              5909671                       # Number of load instructions executed
system.cpu1.iew.iewExecSquashedInsts           292297                       # Number of squashed instructions skipped in execute
system.cpu1.iew.iewExecutedInsts             21876784                       # Number of executed instructions
system.cpu1.iew.iewIQFullEvents                471105                       # Number of times the IQ has become full, causing a stall
system.cpu1.iew.iewIdleCycles                       0                       # Number of cycles IEW is idle
system.cpu1.iew.iewLSQFullEvents               865620                       # Number of times the LSQ has become full, causing a stall
system.cpu1.iew.iewSquashCycles                386007                       # Number of cycles IEW is squashing
system.cpu1.iew.iewUnblockCycles              1916004                       # Number of cycles IEW is unblocking
system.cpu1.iew.lsq.thread0.blockedLoads            0                       # Number of blocked loads due to partial load-store forwarding
system.cpu1.iew.lsq.thread0.cacheBlocked        20336                       # Number of times an access to memory failed due to the cache being blocked
system.cpu1.iew.lsq.thread0.forwLoads          146473                       # Number of loads that had data forwarded from stores
system.cpu1.iew.lsq.thread0.ignoredResponses         6596                       # Number of memory responses ignored because the instruction is squashed
system.cpu1.iew.lsq.thread0.invAddrLoads            0                       # Number of loads ignored due to an invalid address
system.cpu1.iew.lsq.thread0.invAddrSwpfs            0                       # Number of software prefetches ignored due to an invalid address
system.cpu1.iew.lsq.thread0.memOrderViolation          491                       # Number of memory ordering violations
system.cpu1.iew.lsq.thread0.rescheduledLoads         1287                       # Number of loads that were rescheduled
system.cpu1.iew.lsq.thread0.squashedLoads      1278970                       # Number of loads squashed
system.cpu1.iew.lsq.thread0.squashedStores       354126                       # Number of stores squashed
system.cpu1.iew.memOrderViolationEvents           491                       # Number of memory order violations
system.cpu1.iew.predictedNotTakenIncorrect       150449                       # Number of branches that were predicted not taken incorrectly
system.cpu1.iew.predictedTakenIncorrect        254921                       # Number of branches that were predicted taken incorrectly
system.cpu1.iew.wb_consumers                 12366695                       # num instructions consuming a value
system.cpu1.iew.wb_count                     21593961                       # cumulative count of insts written-back
system.cpu1.iew.wb_fanout                    0.843767                       # average fanout of values written-back
system.cpu1.iew.wb_producers                 10434615                       # num instructions producing a value
system.cpu1.iew.wb_rate                      0.184782                       # insts written-back per cycle
system.cpu1.iew.wb_sent                      21602781                       # cumulative count of insts sent to commit
system.cpu1.int_regfile_reads                27378956                       # number of integer regfile reads
system.cpu1.int_regfile_writes               14370987                       # number of integer regfile writes
system.cpu1.ipc                              0.164700                       # IPC: Instructions Per Cycle
system.cpu1.ipc_total                        0.164700                       # IPC: Total IPC of All Threads
system.cpu1.iq.FU_type_0::No_OpClass          1018657      4.59%      4.59% # Type of FU issued
system.cpu1.iq.FU_type_0::IntAlu             13300474     60.00%     64.59% # Type of FU issued
system.cpu1.iq.FU_type_0::IntMult                  48      0.00%     64.59% # Type of FU issued
system.cpu1.iq.FU_type_0::IntDiv                   86      0.00%     64.59% # Type of FU issued
system.cpu1.iq.FU_type_0::FloatAdd                  0      0.00%     64.59% # Type of FU issued
system.cpu1.iq.FU_type_0::FloatCmp                  0      0.00%     64.59% # Type of FU issued
system.cpu1.iq.FU_type_0::FloatCvt                  0      0.00%     64.59% # Type of FU issued
system.cpu1.iq.FU_type_0::FloatMult                 0      0.00%     64.59% # Type of FU issued
system.cpu1.iq.FU_type_0::FloatMultAcc              0      0.00%     64.59% # Type of FU issued
system.cpu1.iq.FU_type_0::FloatDiv                  0      0.00%     64.59% # Type of FU issued
system.cpu1.iq.FU_type_0::FloatMisc                 0      0.00%     64.59% # Type of FU issued
system.cpu1.iq.FU_type_0::FloatSqrt                 0      0.00%     64.59% # Type of FU issued
system.cpu1.iq.FU_type_0::SimdAdd                   0      0.00%     64.59% # Type of FU issued
system.cpu1.iq.FU_type_0::SimdAddAcc                0      0.00%     64.59% # Type of FU issued
system.cpu1.iq.FU_type_0::SimdAlu                   0      0.00%     64.59% # Type of FU issued
system.cpu1.iq.FU_type_0::SimdCmp                   0      0.00%     64.59% # Type of FU issued
system.cpu1.iq.FU_type_0::SimdCvt                   0      0.00%     64.59% # Type of FU issued
system.cpu1.iq.FU_type_0::SimdMisc                  0      0.00%     64.59% # Type of FU issued
system.cpu1.iq.FU_type_0::SimdMult                  0      0.00%     64.59% # Type of FU issued
system.cpu1.iq.FU_type_0::SimdMultAcc               0      0.00%     64.59% # Type of FU issued
system.cpu1.iq.FU_type_0::SimdShift                 0      0.00%     64.59% # Type of FU issued
system.cpu1.iq.FU_type_0::SimdShiftAcc              0      0.00%     64.59% # Type of FU issued
system.cpu1.iq.FU_type_0::SimdDiv                   0      0.00%     64.59% # Type of FU issued
system.cpu1.iq.FU_type_0::SimdSqrt                  0      0.00%     64.59% # Type of FU issued
system.cpu1.iq.FU_type_0::SimdFloatAdd              0      0.00%     64.59% # Type of FU issued
system.cpu1.iq.FU_type_0::SimdFloatAlu              0      0.00%     64.59% # Type of FU issued
system.cpu1.iq.FU_type_0::SimdFloatCmp              0      0.00%     64.59% # Type of FU issued
system.cpu1.iq.FU_type_0::SimdFloatCvt              0      0.00%     64.59% # Type of FU issued
system.cpu1.iq.FU_type_0::SimdFloatDiv              0      0.00%     64.59% # Type of FU issued
system.cpu1.iq.FU_type_0::SimdFloatMisc             0      0.00%     64.59% # Type of FU issued
system.cpu1.iq.FU_type_0::SimdFloatMult             0      0.00%     64.59% # Type of FU issued
system.cpu1.iq.FU_type_0::SimdFloatMultAcc            0      0.00%     64.59% # Type of FU issued
system.cpu1.iq.FU_type_0::SimdFloatSqrt             0      0.00%     64.59% # Type of FU issued
system.cpu1.iq.FU_type_0::SimdReduceAdd             0      0.00%     64.59% # Type of FU issued
system.cpu1.iq.FU_type_0::SimdReduceAlu             0      0.00%     64.59% # Type of FU issued
system.cpu1.iq.FU_type_0::SimdReduceCmp             0      0.00%     64.59% # Type of FU issued
system.cpu1.iq.FU_type_0::SimdFloatReduceAdd            0      0.00%     64.59% # Type of FU issued
system.cpu1.iq.FU_type_0::SimdFloatReduceCmp            0      0.00%     64.59% # Type of FU issued
system.cpu1.iq.FU_type_0::SimdAes                   0      0.00%     64.59% # Type of FU issued
system.cpu1.iq.FU_type_0::SimdAesMix                0      0.00%     64.59% # Type of FU issued
system.cpu1.iq.FU_type_0::SimdSha1Hash              0      0.00%     64.59% # Type of FU issued
system.cpu1.iq.FU_type_0::SimdSha1Hash2             0      0.00%     64.59% # Type of FU issued
system.cpu1.iq.FU_type_0::SimdSha256Hash            0      0.00%     64.59% # Type of FU issued
system.cpu1.iq.FU_type_0::SimdSha256Hash2            0      0.00%     64.59% # Type of FU issued
system.cpu1.iq.FU_type_0::SimdShaSigma2             0      0.00%     64.59% # Type of FU issued
system.cpu1.iq.FU_type_0::SimdShaSigma3             0      0.00%     64.59% # Type of FU issued
system.cpu1.iq.FU_type_0::SimdPredAlu               0      0.00%     64.59% # Type of FU issued
system.cpu1.iq.FU_type_0::MemRead             6488834     29.27%     93.86% # Type of FU issued
system.cpu1.iq.FU_type_0::MemWrite            1360970      6.14%    100.00% # Type of FU issued
system.cpu1.iq.FU_type_0::FloatMemRead              0      0.00%    100.00% # Type of FU issued
system.cpu1.iq.FU_type_0::FloatMemWrite            12      0.00%    100.00% # Type of FU issued
system.cpu1.iq.FU_type_0::IprAccess                 0      0.00%    100.00% # Type of FU issued
system.cpu1.iq.FU_type_0::InstPrefetch              0      0.00%    100.00% # Type of FU issued
system.cpu1.iq.FU_type_0::total              22169081                       # Type of FU issued
system.cpu1.iq.fp_alu_accesses                     16                       # Number of floating point alu accesses
system.cpu1.iq.fp_inst_queue_reads                 28                       # Number of floating instruction queue reads
system.cpu1.iq.fp_inst_queue_wakeup_accesses           12                       # Number of floating instruction queue wakeup accesses
system.cpu1.iq.fp_inst_queue_writes                12                       # Number of floating instruction queue writes
system.cpu1.iq.fu_busy_cnt                     602385                       # FU busy when requested
system.cpu1.iq.fu_busy_rate                  0.027172                       # FU busy rate (busy events/executed inst)
system.cpu1.iq.fu_full::No_OpClass                  0      0.00%      0.00% # attempts to use FU when none available
system.cpu1.iq.fu_full::IntAlu                 122351     20.31%     20.31% # attempts to use FU when none available
system.cpu1.iq.fu_full::IntMult                     0      0.00%     20.31% # attempts to use FU when none available
system.cpu1.iq.fu_full::IntDiv                      0      0.00%     20.31% # attempts to use FU when none available
system.cpu1.iq.fu_full::FloatAdd                    0      0.00%     20.31% # attempts to use FU when none available
system.cpu1.iq.fu_full::FloatCmp                    0      0.00%     20.31% # attempts to use FU when none available
system.cpu1.iq.fu_full::FloatCvt                    0      0.00%     20.31% # attempts to use FU when none available
system.cpu1.iq.fu_full::FloatMult                   0      0.00%     20.31% # attempts to use FU when none available
system.cpu1.iq.fu_full::FloatMultAcc                0      0.00%     20.31% # attempts to use FU when none available
system.cpu1.iq.fu_full::FloatDiv                    0      0.00%     20.31% # attempts to use FU when none available
system.cpu1.iq.fu_full::FloatMisc                   0      0.00%     20.31% # attempts to use FU when none available
system.cpu1.iq.fu_full::FloatSqrt                   0      0.00%     20.31% # attempts to use FU when none available
system.cpu1.iq.fu_full::SimdAdd                     0      0.00%     20.31% # attempts to use FU when none available
system.cpu1.iq.fu_full::SimdAddAcc                  0      0.00%     20.31% # attempts to use FU when none available
system.cpu1.iq.fu_full::SimdAlu                     0      0.00%     20.31% # attempts to use FU when none available
system.cpu1.iq.fu_full::SimdCmp                     0      0.00%     20.31% # attempts to use FU when none available
system.cpu1.iq.fu_full::SimdCvt                     0      0.00%     20.31% # attempts to use FU when none available
system.cpu1.iq.fu_full::SimdMisc                    0      0.00%     20.31% # attempts to use FU when none available
system.cpu1.iq.fu_full::SimdMult                    0      0.00%     20.31% # attempts to use FU when none available
system.cpu1.iq.fu_full::SimdMultAcc                 0      0.00%     20.31% # attempts to use FU when none available
system.cpu1.iq.fu_full::SimdShift                   0      0.00%     20.31% # attempts to use FU when none available
system.cpu1.iq.fu_full::SimdShiftAcc                0      0.00%     20.31% # attempts to use FU when none available
system.cpu1.iq.fu_full::SimdDiv                     0      0.00%     20.31% # attempts to use FU when none available
system.cpu1.iq.fu_full::SimdSqrt                    0      0.00%     20.31% # attempts to use FU when none available
system.cpu1.iq.fu_full::SimdFloatAdd                0      0.00%     20.31% # attempts to use FU when none available
system.cpu1.iq.fu_full::SimdFloatAlu                0      0.00%     20.31% # attempts to use FU when none available
system.cpu1.iq.fu_full::SimdFloatCmp                0      0.00%     20.31% # attempts to use FU when none available
system.cpu1.iq.fu_full::SimdFloatCvt                0      0.00%     20.31% # attempts to use FU when none available
system.cpu1.iq.fu_full::SimdFloatDiv                0      0.00%     20.31% # attempts to use FU when none available
system.cpu1.iq.fu_full::SimdFloatMisc               0      0.00%     20.31% # attempts to use FU when none available
system.cpu1.iq.fu_full::SimdFloatMult               0      0.00%     20.31% # attempts to use FU when none available
system.cpu1.iq.fu_full::SimdFloatMultAcc            0      0.00%     20.31% # attempts to use FU when none available
system.cpu1.iq.fu_full::SimdFloatSqrt               0      0.00%     20.31% # attempts to use FU when none available
system.cpu1.iq.fu_full::SimdReduceAdd               0      0.00%     20.31% # attempts to use FU when none available
system.cpu1.iq.fu_full::SimdReduceAlu               0      0.00%     20.31% # attempts to use FU when none available
system.cpu1.iq.fu_full::SimdReduceCmp               0      0.00%     20.31% # attempts to use FU when none available
system.cpu1.iq.fu_full::SimdFloatReduceAdd            0      0.00%     20.31% # attempts to use FU when none available
system.cpu1.iq.fu_full::SimdFloatReduceCmp            0      0.00%     20.31% # attempts to use FU when none available
system.cpu1.iq.fu_full::SimdAes                     0      0.00%     20.31% # attempts to use FU when none available
system.cpu1.iq.fu_full::SimdAesMix                  0      0.00%     20.31% # attempts to use FU when none available
system.cpu1.iq.fu_full::SimdSha1Hash                0      0.00%     20.31% # attempts to use FU when none available
system.cpu1.iq.fu_full::SimdSha1Hash2               0      0.00%     20.31% # attempts to use FU when none available
system.cpu1.iq.fu_full::SimdSha256Hash              0      0.00%     20.31% # attempts to use FU when none available
system.cpu1.iq.fu_full::SimdSha256Hash2             0      0.00%     20.31% # attempts to use FU when none available
system.cpu1.iq.fu_full::SimdShaSigma2               0      0.00%     20.31% # attempts to use FU when none available
system.cpu1.iq.fu_full::SimdShaSigma3               0      0.00%     20.31% # attempts to use FU when none available
system.cpu1.iq.fu_full::SimdPredAlu                 0      0.00%     20.31% # attempts to use FU when none available
system.cpu1.iq.fu_full::MemRead                424428     70.46%     90.77% # attempts to use FU when none available
system.cpu1.iq.fu_full::MemWrite                55602      9.23%    100.00% # attempts to use FU when none available
[...]
system.cpu1.dcache.WriteReq_mshr_miss_rate::.cpu1.data     0.040415                       # mshr miss rate for WriteReq accesses
system.cpu1.dcache.WriteReq_mshr_miss_rate::total     0.040415                       # mshr miss rate for WriteReq accesses
system.cpu1.dcache.WriteReq_avg_mshr_miss_latency::.cpu1.data 92340.884772                       # average WriteReq mshr miss latency
system.cpu1.dcache.WriteReq_avg_mshr_miss_latency::total 92340.884772                       # average WriteReq mshr miss latency
system.cpu1.dcache.LoadLockedReq_hits::.cpu1.data        30583                       # number of LoadLockedReq hits
system.cpu1.dcache.LoadLockedReq_hits::total        30583                       # number of LoadLockedReq hits
system.cpu1.dcache.LoadLockedReq_misses::.cpu1.data         1645                       # number of LoadLockedReq misses
system.cpu1.dcache.LoadLockedReq_misses::total         1645                       # number of LoadLockedReq misses
system.cpu1.dcache.LoadLockedReq_miss_latency::.cpu1.data     39294000                       # number of LoadLockedReq miss cycles
system.cpu1.dcache.LoadLockedReq_miss_latency::total     39294000                       # number of LoadLockedReq miss cycles
system.cpu1.dcache.LoadLockedReq_accesses::.cpu1.data        32228                       # number of LoadLockedReq accesses(hits+misses)
system.cpu1.dcache.LoadLockedReq_accesses::total        32228                       # number of LoadLockedReq accesses(hits+misses)
system.cpu1.dcache.LoadLockedReq_miss_rate::.cpu1.data     0.051043                       # miss rate for LoadLockedReq accesses
system.cpu1.dcache.LoadLockedReq_miss_rate::total     0.051043                       # miss rate for LoadLockedReq accesses
system.cpu1.dcache.LoadLockedReq_avg_miss_latency::.cpu1.data 23886.930091                       # average LoadLockedReq miss latency
system.cpu1.dcache.LoadLockedReq_avg_miss_latency::total 23886.930091                       # average LoadLockedReq miss latency
system.cpu1.dcache.LoadLockedReq_mshr_hits::.cpu1.data          466                       # number of LoadLockedReq MSHR hits
system.cpu1.dcache.LoadLockedReq_mshr_hits::total          466                       # number of LoadLockedReq MSHR hits
system.cpu1.dcache.LoadLockedReq_mshr_misses::.cpu1.data         1179                       # number of LoadLockedReq MSHR misses
system.cpu1.dcache.LoadLockedReq_mshr_misses::total         1179                       # number of LoadLockedReq MSHR misses
system.cpu1.dcache.LoadLockedReq_mshr_miss_latency::.cpu1.data     15066500                       # number of LoadLockedReq MSHR miss cycles
system.cpu1.dcache.LoadLockedReq_mshr_miss_latency::total     15066500                       # number of LoadLockedReq MSHR miss cycles
system.cpu1.dcache.LoadLockedReq_mshr_miss_rate::.cpu1.data     0.036583                       # mshr miss rate for LoadLockedReq accesses
system.cpu1.dcache.LoadLockedReq_mshr_miss_rate::total     0.036583                       # mshr miss rate for LoadLockedReq accesses
system.cpu1.dcache.LoadLockedReq_avg_mshr_miss_latency::.cpu1.data 12779.050042                       # average LoadLockedReq mshr miss latency
system.cpu1.dcache.LoadLockedReq_avg_mshr_miss_latency::total 12779.050042                       # average LoadLockedReq mshr miss latency
system.cpu1.dcache.StoreCondReq_hits::.cpu1.data        24740                       # number of StoreCondReq hits
system.cpu1.dcache.StoreCondReq_hits::total        24740                       # number of StoreCondReq hits
system.cpu1.dcache.StoreCondReq_misses::.cpu1.data         6013                       # number of StoreCondReq misses
system.cpu1.dcache.StoreCondReq_misses::total         6013                       # number of StoreCondReq misses
system.cpu1.dcache.StoreCondReq_miss_latency::.cpu1.data     43323500                       # number of StoreCondReq miss cycles
system.cpu1.dcache.StoreCondReq_miss_latency::total     43323500                       # number of StoreCondReq miss cycles
system.cpu1.dcache.StoreCondReq_accesses::.cpu1.data        30753                       # number of StoreCondReq accesses(hits+misses)
system.cpu1.dcache.StoreCondReq_accesses::total        30753                       # number of StoreCondReq accesses(hits+misses)
system.cpu1.dcache.StoreCondReq_miss_rate::.cpu1.data     0.195526                       # miss rate for StoreCondReq accesses
system.cpu1.dcache.StoreCondReq_miss_rate::total     0.195526                       # miss rate for StoreCondReq accesses
system.cpu1.dcache.StoreCondReq_avg_miss_latency::.cpu1.data  7204.972559                       # average StoreCondReq miss latency
system.cpu1.dcache.StoreCondReq_avg_miss_latency::total  7204.972559                       # average StoreCondReq miss latency
system.cpu1.dcache.StoreCondReq_mshr_misses::.cpu1.data         5861                       # number of StoreCondReq MSHR misses
system.cpu1.dcache.StoreCondReq_mshr_misses::total         5861                       # number of StoreCondReq MSHR misses
system.cpu1.dcache.StoreCondReq_mshr_miss_latency::.cpu1.data     37619500                       # number of StoreCondReq MSHR miss cycles
system.cpu1.dcache.StoreCondReq_mshr_miss_latency::total     37619500                       # number of StoreCondReq MSHR miss cycles
system.cpu1.dcache.StoreCondReq_mshr_miss_rate::.cpu1.data     0.190583                       # mshr miss rate for StoreCondReq accesses
system.cpu1.dcache.StoreCondReq_mshr_miss_rate::total     0.190583                       # mshr miss rate for StoreCondReq accesses
system.cpu1.dcache.StoreCondReq_avg_mshr_miss_latency::.cpu1.data  6418.614571                       # average StoreCondReq mshr miss latency
system.cpu1.dcache.StoreCondReq_avg_mshr_miss_latency::total  6418.614571                       # average StoreCondReq mshr miss latency
system.cpu1.dcache.StoreCondFailReq_miss_latency::.cpu1.data      2039000                       # number of StoreCondFailReq miss cycles
system.cpu1.dcache.StoreCondFailReq_miss_latency::total      2039000                       # number of StoreCondFailReq miss cycles
system.cpu1.dcache.StoreCondFailReq_avg_miss_latency::.cpu1.data          inf                       # average StoreCondFailReq miss latency
system.cpu1.dcache.StoreCondFailReq_avg_miss_latency::total          inf                       # average StoreCondFailReq miss latency
system.cpu1.dcache.StoreCondFailReq_mshr_miss_latency::.cpu1.data      1882000                       # number of StoreCondFailReq MSHR miss cycles
system.cpu1.dcache.StoreCondFailReq_mshr_miss_latency::total      1882000                       # number of StoreCondFailReq MSHR miss cycles
system.cpu1.dcache.StoreCondFailReq_avg_mshr_miss_latency::.cpu1.data          inf                       # average StoreCondFailReq mshr miss latency
system.cpu1.dcache.StoreCondFailReq_avg_mshr_miss_latency::total          inf                       # average StoreCondFailReq mshr miss latency
system.cpu1.dcache.SwapReq_hits::.cpu1.data         1062                       # number of SwapReq hits
system.cpu1.dcache.SwapReq_hits::total           1062                       # number of SwapReq hits
system.cpu1.dcache.SwapReq_misses::.cpu1.data         2951                       # number of SwapReq misses
system.cpu1.dcache.SwapReq_misses::total         2951                       # number of SwapReq misses
system.cpu1.dcache.SwapReq_miss_latency::.cpu1.data     58579499                       # number of SwapReq miss cycles
system.cpu1.dcache.SwapReq_miss_latency::total     58579499                       # number of SwapReq miss cycles
system.cpu1.dcache.SwapReq_accesses::.cpu1.data         4013                       # number of SwapReq accesses(hits+misses)
system.cpu1.dcache.SwapReq_accesses::total         4013                       # number of SwapReq accesses(hits+misses)
system.cpu1.dcache.SwapReq_miss_rate::.cpu1.data     0.735360                       # miss rate for SwapReq accesses
system.cpu1.dcache.SwapReq_miss_rate::total     0.735360                       # miss rate for SwapReq accesses
system.cpu1.dcache.SwapReq_avg_miss_latency::.cpu1.data 19850.728228                       # average SwapReq miss latency
system.cpu1.dcache.SwapReq_avg_miss_latency::total 19850.728228                       # average SwapReq miss latency
system.cpu1.dcache.SwapReq_mshr_hits::.cpu1.data            2                       # number of SwapReq MSHR hits
system.cpu1.dcache.SwapReq_mshr_hits::total            2                       # number of SwapReq MSHR hits
system.cpu1.dcache.SwapReq_mshr_misses::.cpu1.data         2949                       # number of SwapReq MSHR misses
system.cpu1.dcache.SwapReq_mshr_misses::total         2949                       # number of SwapReq MSHR misses
system.cpu1.dcache.SwapReq_mshr_miss_latency::.cpu1.data     55624999                       # number of SwapReq MSHR miss cycles
system.cpu1.dcache.SwapReq_mshr_miss_latency::total     55624999                       # number of SwapReq MSHR miss cycles
system.cpu1.dcache.SwapReq_mshr_miss_rate::.cpu1.data     0.734862                       # mshr miss rate for SwapReq accesses
system.cpu1.dcache.SwapReq_mshr_miss_rate::total     0.734862                       # mshr miss rate for SwapReq accesses
system.cpu1.dcache.SwapReq_avg_mshr_miss_latency::.cpu1.data 18862.325873                       # average SwapReq mshr miss latency
system.cpu1.dcache.SwapReq_avg_mshr_miss_latency::total 18862.325873                       # average SwapReq mshr miss latency
system.cpu1.dcache.tags.pwrStateResidencyTicks::UNDEFINED  42497100000                       # Cumulative time (in ticks) in various power states
system.cpu1.dcache.tags.tagsinuse           30.994363                       # Cycle average of tags in use
system.cpu1.dcache.tags.total_refs            9303193                       # Total number of references to valid blocks.
system.cpu1.dcache.tags.sampled_refs           643922                       # Sample count of references to valid blocks.
system.cpu1.dcache.tags.avg_refs            14.447702                       # Average number of references to valid blocks.
system.cpu1.dcache.tags.warmup_cycle                0                       # Cycle when the warmup percentage was hit.
system.cpu1.dcache.tags.occ_blocks::.cpu1.data    30.994363                       # Average occupied blocks per requestor
system.cpu1.dcache.tags.occ_percent::.cpu1.data     0.968574                       # Average percentage of cache occupancy
system.cpu1.dcache.tags.occ_percent::total     0.968574                       # Average percentage of cache occupancy
system.cpu1.dcache.tags.occ_task_id_blocks::1024           29                       # Occupied blocks per task id
system.cpu1.dcache.tags.age_task_id_blocks_1024::1           29                       # Occupied blocks per task id
system.cpu1.dcache.tags.occ_task_id_percent::1024     0.906250                       # Percentage of cache occupancy per task id
system.cpu1.dcache.tags.tag_accesses         24347217                       # Number of tag accesses
system.cpu1.dcache.tags.data_accesses        24347217                       # Number of data accesses
system.cpu_clk_domain.clock                       500                       # Clock period in ticks
system.tol2bus.pwrStateResidencyTicks::UNDEFINED  42497100000                       # Cumulative time (in ticks) in various power states
system.tol2bus.trans_dist::ReadResp           2632024                       # Transaction distribution
system.tol2bus.trans_dist::ReadRespWithInvalidate           16                       # Transaction distribution
system.tol2bus.trans_dist::WritebackDirty       822332                       # Transaction distribution
system.tol2bus.trans_dist::WritebackClean      2277608                       # Transaction distribution
system.tol2bus.trans_dist::CleanEvict         3675976                       # Transaction distribution
system.tol2bus.trans_dist::UpgradeReq           14354                       # Transaction distribution
system.tol2bus.trans_dist::SCUpgradeReq         22516                       # Transaction distribution
system.tol2bus.trans_dist::UpgradeResp          36870                       # Transaction distribution
system.tol2bus.trans_dist::SCUpgradeFailReq          558                       # Transaction distribution
system.tol2bus.trans_dist::UpgradeFailResp          558                       # Transaction distribution
system.tol2bus.trans_dist::ReadExReq           144899                       # Transaction distribution
system.tol2bus.trans_dist::ReadExResp          144900                       # Transaction distribution
system.tol2bus.trans_dist::ReadCleanReq        178931                       # Transaction distribution
system.tol2bus.trans_dist::ReadSharedReq      2453109                       # Transaction distribution
system.tol2bus.trans_dist::InvalidateReq           63                       # Transaction distribution
system.tol2bus.trans_dist::InvalidateResp           63                       # Transaction distribution
system.tol2bus.pkt_count_system.cpu0.icache.mem_side::system.l2.cpu_side       327336                       # Packet count per connected master and slave (bytes)
system.tol2bus.pkt_count_system.cpu0.dcache.mem_side::system.l2.cpu_side      2105784                       # Packet count per connected master and slave (bytes)
system.tol2bus.pkt_count_system.cpu1.icache.mem_side::system.l2.cpu_side        70341                       # Packet count per connected master and slave (bytes)
system.tol2bus.pkt_count_system.cpu1.dcache.mem_side::system.l2.cpu_side      1915744                       # Packet count per connected master and slave (bytes)
system.tol2bus.pkt_count_system.cpu2.icache.mem_side::system.l2.cpu_side        69942                       # Packet count per connected master and slave (bytes)
system.tol2bus.pkt_count_system.cpu2.dcache.mem_side::system.l2.cpu_side      1879829                       # Packet count per connected master and slave (bytes)
system.tol2bus.pkt_count_system.cpu3.icache.mem_side::system.l2.cpu_side        69174                       # Packet count per connected master and slave (bytes)
system.tol2bus.pkt_count_system.cpu3.dcache.mem_side::system.l2.cpu_side      1834784                       # Packet count per connected master and slave (bytes)
system.tol2bus.pkt_count::total               8272934                       # Packet count per connected master and slave (bytes)
system.tol2bus.pkt_size_system.cpu0.icache.mem_side::system.l2.cpu_side     13966336                       # Cumulative packet size per connected master and slave (bytes)
system.tol2bus.pkt_size_system.cpu0.dcache.mem_side::system.l2.cpu_side     88768192                       # Cumulative packet size per connected master and slave (bytes)
system.tol2bus.pkt_size_system.cpu1.icache.mem_side::system.l2.cpu_side      3001216                       # Cumulative packet size per connected master and slave (bytes)
system.tol2bus.pkt_size_system.cpu1.dcache.mem_side::system.l2.cpu_side     80723328                       # Cumulative packet size per connected master and slave (bytes)
system.tol2bus.pkt_size_system.cpu2.icache.mem_side::system.l2.cpu_side      2984192                       # Cumulative packet size per connected master and slave (bytes)
system.tol2bus.pkt_size_system.cpu2.dcache.mem_side::system.l2.cpu_side     79203840                       # Cumulative packet size per connected master and slave (bytes)
system.tol2bus.pkt_size_system.cpu3.icache.mem_side::system.l2.cpu_side      2951424                       # Cumulative packet size per connected master and slave (bytes)
system.tol2bus.pkt_size_system.cpu3.dcache.mem_side::system.l2.cpu_side     77298688                       # Cumulative packet size per connected master and slave (bytes)
system.tol2bus.pkt_size::total              348897216                       # Cumulative packet size per connected master and slave (bytes)
system.tol2bus.snoops                         4131843                       # Total snoops (count)
system.tol2bus.snoopTraffic                  27258816                       # Total snoop traffic (bytes)
system.tol2bus.snoop_fanout::samples          6865111                       # Request fanout histogram
system.tol2bus.snoop_fanout::mean            0.488796                       # Request fanout histogram
system.tol2bus.snoop_fanout::stdev           0.745469                       # Request fanout histogram
system.tol2bus.snoop_fanout::underflows             0      0.00%      0.00% # Request fanout histogram
system.tol2bus.snoop_fanout::0                4238921     61.75%     61.75% # Request fanout histogram
system.tol2bus.snoop_fanout::1                2166305     31.56%     93.30% # Request fanout histogram
system.tol2bus.snoop_fanout::2                 241152      3.51%     96.81% # Request fanout histogram
system.tol2bus.snoop_fanout::3                 167902      2.45%     99.26% # Request fanout histogram
system.tol2bus.snoop_fanout::4                  50831      0.74%    100.00% # Request fanout histogram
system.tol2bus.snoop_fanout::5                      0      0.00%    100.00% # Request fanout histogram
system.tol2bus.snoop_fanout::6                      0      0.00%    100.00% # Request fanout histogram
system.tol2bus.snoop_fanout::7                      0      0.00%    100.00% # Request fanout histogram
system.tol2bus.snoop_fanout::8                      0      0.00%    100.00% # Request fanout histogram
system.tol2bus.snoop_fanout::overflows              0      0.00%    100.00% # Request fanout histogram
system.tol2bus.snoop_fanout::min_value              0                       # Request fanout histogram
system.tol2bus.snoop_fanout::max_value              4                       # Request fanout histogram
system.tol2bus.snoop_fanout::total            6865111                       # Request fanout histogram
system.tol2bus.reqLayer0.occupancy         5495565003                       # Layer occupancy (ticks)
system.tol2bus.reqLayer0.utilization             12.9                       # Layer utilization (%)
system.tol2bus.respLayer5.occupancy         956882385                       # Layer occupancy (ticks)
system.tol2bus.respLayer5.utilization             2.3                       # Layer utilization (%)
system.tol2bus.respLayer4.occupancy          37962125                       # Layer occupancy (ticks)
system.tol2bus.respLayer4.utilization             0.1                       # Layer utilization (%)
system.tol2bus.respLayer7.occupancy         934276815                       # Layer occupancy (ticks)
system.tol2bus.respLayer7.utilization             2.2                       # Layer utilization (%)
system.tol2bus.respLayer6.occupancy          37488776                       # Layer occupancy (ticks)
system.tol2bus.respLayer6.utilization             0.1                       # Layer utilization (%)
system.tol2bus.respLayer1.occupancy        1067816428                       # Layer occupancy (ticks)
system.tol2bus.respLayer1.utilization             2.5                       # Layer utilization (%)
system.tol2bus.respLayer0.occupancy         164237036                       # Layer occupancy (ticks)
system.tol2bus.respLayer0.utilization             0.4                       # Layer utilization (%)
system.tol2bus.respLayer3.occupancy         974872313                       # Layer occupancy (ticks)
system.tol2bus.respLayer3.utilization             2.3                       # Layer utilization (%)
system.tol2bus.respLayer2.occupancy          38174890                       # Layer occupancy (ticks)
system.tol2bus.respLayer2.utilization             0.1                       # Layer utilization (%)

---------- End Simulation Statistics   ----------
