Redirecting stdout to /vol1/msoyturk/gem5/results/sssp/slashdot.el/4kB/output.txt
Redirecting stderr to /vol1/msoyturk/gem5/results/sssp/slashdot.el/4kB/error.txt
gem5 Simulator System.  http://gem5.org
gem5 is copyrighted software; use the --copyright option for details.

gem5 compiled Apr 26 2020 13:32:47
gem5 started May  4 2020 07:52:13
gem5 executing on draco, pid 1410
command line: /vol1/msoyturk/gem5/build/RISCV/gem5.fast -re --outdir=/vol1/msoyturk/gem5/results/sssp/slashdot.el/4kB --stdout-file=output.txt --stderr-file=error.txt /vol1/msoyturk/gem5/configs/example/my_se.py -c /vol1/msoyturk/gem5/gapbs/sssp -o '-f /vol1/msoyturk/gem5/gapbs/test/graphs/slashdot.el' --caches --l1d_size=2kB --l1i_size=2kB --cpu-type=DerivO3CPU -n 4 --mem-size=512MB --l2cache --l2_size=4kB --l1i_mshrs=4 --l1d_mshrs=4 --l2_mshrs=20 --l1i_write_buffers=8 --l1d_write_buffers=8 --l2_write_buffers=8

info: Standard input is not a terminal, disabling listeners.
Global frequency set at 1000000000000 ticks per second
**** REAL SIMULATION ****
Read Time:           0.93848
Build Time:          0.20016
Graph has 77360 nodes and 828161 directed edges for degree: 10
    0          1     0.02997
   12          1     0.10139
   15          1     0.06414
   16          1     0.01606
   20          2     1.35112
   21         13     0.37602
   22          9     0.19268
   23         15     0.31053
   24         15     0.92128
   25         40     0.67152
   26         42     1.12666
   27         60     0.97832
   28         79     0.87182
   29         97     1.14470
   30        131     1.41066
   31        174     1.24031
   32        217     1.03136
   33        306     1.20726
   34        387     1.65509
   35        415     1.37234
   36        552     1.36522
   37        633     1.53371
   38        672     1.22430
   39        773     1.31815
   40        789     1.08463
   41        829     1.08940
   42        895     0.88974
   43        914     0.82626
   44        912     0.66348
   45        885     0.68196
   46        948     0.59731
   47        919     0.53601
   48        900     0.56978
   49        945     0.48973
   50        963     0.45451
   51        958     0.46353
   52        911     0.40848
   53        961     0.37305
   54        921     0.33761
   55        857     0.27007
   56        893     0.31110
   57        913     0.27838
   58        873     0.27463
   59        859     0.26016
   60        836     0.25869
   61        822     0.21222
   62        875     0.23024
   63        833     0.21099
   64        850     0.19420
   65        826     0.22661
   66        828     0.17064
   67        833     0.18645
   68        774     0.17008
   69        777     0.14454
   70        869     0.17599
   71        790     0.15561
   72        754     0.12748
   73        796     0.15455
   74        764     0.14777
   75        724     0.14276
   76        705     0.12790
   77        693     0.12557
   78        741     0.13943
   79        725     0.13784
   80        746     0.12661
   81        680     0.11307
   82        685     0.10433
   83        661     0.10583
   84        675     0.11592
   85        714     0.11102
   86        664     0.09083
   87        654     0.10263
   88        654     0.09549
   89        673     0.09978
   90        669     0.08732
   91        672     0.10076
   92        616     0.08912
   93        596     0.07977
   94        613     0.08150
   95        620     0.08393
   96        635     0.09584
   97        589     0.08909
   98        566     0.07525
   99        610     0.08250
  100        560     0.07483
  101        586     0.08123
  102        589     0.08028
  103        576     0.08151
  104        598     0.07858
  105        599     0.08021
  106        549     0.06568
  107        553     0.07754
  108        571     0.07947
  109        581     0.07641
  110        572     0.06540
  111        551     0.06902
  112        513     0.06277
  113        561     0.07219
  114        531     0.06057
  115        537     0.05869
  116        537     0.05792
  117        547     0.06617
  118        570     0.06503
  119        494     0.05746
  120        554     0.06695
  121        500     0.05397
  122        532     0.07295
  123        538     0.06226
  124        493     0.06837
  125        504     0.06111
  126        512     0.06087
  127        509     0.06202
  128        508     0.05138
  129        481     0.05597
  130        506     0.06488
  131        521     0.06372
  132        522     0.05625
  133        523     0.06336
  134        514     0.05779
  135        513     0.05690
  136        472     0.04886
  137        508     0.05556
  138        500     0.05913
  139        488     0.05309
  140        491     0.06137
  141        476     0.05008
  142        499     0.04765
  143        452     0.05103
  144        461     0.04712
  145        473     0.05853
  146        417     0.05908
  147        488     0.05641
  148        459     0.05669
  149        456     0.05173
  150        477     0.05271
  151        450     0.05434
  152        452     0.05867
  153        443     0.05078
  154        475     0.04519
  155        429     0.04303
  156        473     0.04568
  157        473     0.04283
  158        467     0.04917
  159        431     0.04787
  160        474     0.05596
  161        445     0.04770
  162        441     0.04939
  163        441     0.05616
  164        409     0.04208
  165        424     0.04828
  166        420     0.04611
  167        445     0.06163
  168        408     0.04218
  169        407     0.04666
  170        426     0.05062
  171        423     0.04349
  172        414     0.03572
  173        428     0.04122
  174        407     0.03800
  175        427     0.04998
  176        393     0.03659
  177        410     0.03541
  178        391     0.04647
  179        400     0.04016
  180        403     0.03768
  181        411     0.04483
  182        417     0.04880
  183        406     0.04074
  184        415     0.03929
  185        399     0.03842
  186        423     0.05545
  187        407     0.04519
  188        368     0.03041
  189        372     0.04515
  190        374     0.03969
  191        428     0.04841
  192        378     0.04082
  193        362     0.03847
  194        412     0.03505
  195        385     0.04208
  196        374     0.03694
  197        399     0.03970
  198        381     0.03975
  199        404     0.04271
  200        387     0.03940
  201        376     0.03569
  202        372     0.04079
  203        386     0.04159
  204        366     0.04003
  205        387     0.04435
  206        339     0.03714
  207        381     0.04310
  208        379     0.03845
  209        364     0.03551
  210        384     0.03616
  211        383     0.04266
  212        387     0.04499
  213        370     0.04540
  214        381     0.04401
  215        348     0.03108
  216        353     0.03134
  217        368     0.03271
  218        390     0.03874
  219        367     0.04057
  220        356     0.04143
  221        341     0.02909
  222        300     0.03790
  223        351     0.03956
  224        318     0.03414
  225        384     0.03577
  226        369     0.02999
  227        361     0.03066
  228        360     0.03366
  229        353     0.02939
  230        340     0.03325
  231        346     0.02810
  232        332     0.03073
  233        345     0.04080
  234        342     0.03476
  235        330     0.02819
  236        318     0.03130
  237        323     0.03479
  238        343     0.03449
  239        354     0.02666
  240        328     0.02883
  241        318     0.03214
  242        326     0.03430
  243        330     0.03804
  244        388     0.03623
  245        339     0.03652
  246        305     0.02885
  247        316     0.03178
  248        317     0.03438
  249        336     0.03391
  250        343     0.03552
  251        308     0.03167
  252        368     0.03841
  253        341     0.03307
  254        349     0.03709
  255        324     0.03105
  256        340     0.03246
  257        320     0.03835
  258        349     0.03878
  259        308     0.03832
  260        353     0.03760
  261        358     0.03143
  262        317     0.03186
  263        346     0.03456
  264        316     0.03670
  265        290     0.02770
  266        333     0.03352
  267        333     0.02952
  268        313     0.03395
  269        352     0.03025
  270        295     0.02704
  271        330     0.03921
  272        328     0.03461
  273        297     0.02550
  274        313     0.03579
  275        283     0.03055
  276        310     0.03041
  277        316     0.03428
  278        301     0.03405
  279        305     0.02953
  280        274     0.02608
  281        290     0.03395
  282        240     0.02075
  283        289     0.03589
  284        248     0.03520
  285        262     0.03028
  286        232     0.03004
  287        203     0.02508
  288        201     0.02799
  289        218     0.02889
  290        198     0.02860
  291        150     0.02234
  292        157     0.02078
  293        124     0.01909
  294        105     0.01403
  295        104     0.01547
  296        100     0.01784
  297        109     0.02049
  298         80     0.01842
  299         75     0.01483
  300         78     0.01485
  301         66     0.01797
  302         86     0.01600
  303         60     0.01789
  304         66     0.02065
  305         80     0.02056
  306         79     0.02573
  307         57     0.01914
  308         68     0.02201
  309         48     0.01505
  310         58     0.02016
  311         56     0.01924
  312         46     0.01428
  313         66     0.01660
  314         50     0.01573
  315         35     0.01103
  316         37     0.01633
  317         41     0.01553
  318         38     0.01576
  319         38     0.01942
  320         47     0.01297
  321         35     0.01115
  322         33     0.01398
  323         37     0.01248
  324         39     0.02008
  325         37     0.01314
  326         31     0.01503
  327         26     0.01495
  328         23     0.01196
  329         31     0.01074
  330         34     0.01848
  331         26     0.01140
  332         17     0.00883
  333         18     0.00887
  334         23     0.01499
  335         28     0.00985
  336         30     0.01034
  337         21     0.01060
  338         31     0.01208
  339         24     0.00967
  340         25     0.01006
  341         15     0.00901
  342         23     0.01376
  343         19     0.01213
  344         26     0.01546
  345         20     0.01142
  346         30     0.01076
  347         14     0.00851
  348         12     0.01063
  349         18     0.01385
  350         17     0.01165
  351         21     0.00935
  352         23     0.01444
  353         28     0.01026
  354         17     0.01119
  355         17     0.00883
  356         14     0.00836
  357         14     0.00901
  358         21     0.01235
  359         24     0.01344
  360         22     0.00971
  361         14     0.01415
  362         19     0.00897
  363         19     0.01037
  364         15     0.01001
  365         14     0.00970
  366         23     0.01554
  367         25     0.01490
  368         17     0.00891
  369         14     0.00849
  370         20     0.01408
  371         15     0.01104
  372         17     0.01181
  373         18     0.01393
  374         10     0.00841
  375         12     0.00799
  376         15     0.00859
  377         12     0.00805
  378         17     0.01329
  379         21     0.01744
  380         12     0.00777
  381         13     0.00845
  382         12     0.00976
  383          9     0.01090
  384          7     0.00717
  385         11     0.00774
  386         10     0.00769
  387          8     0.01188
  388         11     0.01064
  389          7     0.01068
  390          5     0.00684
  391         12     0.01389
  392         12     0.00748
  393          9     0.01301
  394         13     0.00836
  395         10     0.01583
  396         11     0.01015
  397         13     0.01194
  398         13     0.01104
  399         15     0.00976
  400          5     0.00667
  401         12     0.01271
  402         11     0.00879
  403         10     0.00783
  404          8     0.00738
  405          7     0.00852
  406         18     0.01568
  407         12     0.01047
  408         15     0.00850
  409          9     0.00778
  410          7     0.00831
  411         10     0.00747
  412          6     0.01082
  413          6     0.00684
  414         10     0.01091
  415          9     0.00755
  416          8     0.00753
  417          7     0.00992
  418          5     0.00711
  419         11     0.01065
  420          9     0.00766
  421         11     0.01226
  422          7     0.00684
  423         12     0.01039
  424         14     0.00838
  425          9     0.00773
  426          9     0.00736
  427          9     0.01014
  428         11     0.01051
  429          8     0.00824
  430          6     0.00664
  431          5     0.00637
  432         12     0.00838
  433          2     0.00605
  434          5     0.00622
  435          7     0.00744
  436          8     0.00712
  437          5     0.01048
  438          9     0.01158
  439          8     0.00729
  440          5     0.01158
  441          9     0.00802
  442          6     0.00648
  443          3     0.00591
  444         11     0.00745
  445          9     0.00773
  446          7     0.01213
  447          2     0.00559
  448          8     0.00957
  449          3     0.01199
  450          6     0.01082
  451          7     0.00736
  452         10     0.00771
  453          4     0.00614
  454          5     0.01004
  455         11     0.00796
  456          5     0.00656
  457          5     0.00984
  458          6     0.01027
  459          8     0.01334
  460          4     0.00637
  461          9     0.00743
  462          3     0.00905
  463          9     0.00710
  464          5     0.00980
  465          3     0.00634
  466          2     0.00552
  467          7     0.01002
  468          3     0.00926
  469          5     0.00675
  470          7     0.00713
  471          6     0.01039
  472          7     0.00709
  473          2     0.00601
  474          3     0.00589
  475          3     0.01056
  476          3     0.00618
  477          5     0.00683
  478          6     0.01217
  479          1     0.00591
  480          7     0.00693
  481          3     0.00674
  482          2     0.00584
  483          4     0.00635
  484          3     0.00603
  485          2     0.00569
  486          1     0.00540
  487          3     0.00579
  488          4     0.00656
  489          4     0.00664
  490          3     0.00613
  491          4     0.00653
  492          7     0.00691
  493          4     0.01096
  494          2     0.00591
  495          3     0.00582
  496          1     0.00577
  497          4     0.00639
  498          1     0.00546
  499          2     0.00592
  500          4     0.00633
  501          7     0.00703
  502          7     0.00793
  503          4     0.01112
  504          5     0.00699
  505          3     0.00597
  506          3     0.00573
  507          2     0.00553
  509          6     0.01083
  511          2     0.00619
  512          1     0.00542
  513          1     0.00535
  515          5     0.01108
  517          5     0.00650
  518          2     0.00558
  520          4     0.00658
  521          4     0.01004
  522          1     0.00560
  523          2     0.00591
  524          3     0.00598
  525          1     0.00581
  526          5     0.00935
  528          4     0.00617
  529          1     0.00571
  530          1     0.00577
  531          2     0.00582
  532          1     0.00570
  533          4     0.00619
  534          2     0.00558
  536          1     0.00538
  537          5     0.00661
  538          1     0.00556
  539          1     0.00564
  540          1     0.00578
  542          1     0.00572
  544          2     0.00581
  546          1     0.00557
  547          1     0.00563
  549          1     0.00532
  550          2     0.00538
  551          1     0.00599
  552          2     0.01027
  553          1     0.00564
  554          1     0.00546
  555          2     0.00612
  560          1     0.00573
  562          1     0.00559
  563          1     0.00574
  565          1     0.00565
  566          1     0.00625
  567          2     0.00557
  570          1     0.00569
  571          1     0.00568
  572          1     0.00573
  573          1     0.00605
  575          1     0.00555
  576          1     0.00568
  577          2     0.00543
  580          1     0.00556
  582          2     0.00543
  583          3     0.02634
  584          1     0.00585
  586          2     0.00550
  587          1     0.00567
  590          2     0.00570
  592          1     0.00606
  593          1     0.00580
  594          1     0.00576
  597          1     0.00571
  598          1     0.00523
  600          1     0.00530
  601          2     0.01136
  603          2     0.00556
  605          1     0.00526
  607          1     0.00571
  608          1     0.00579
  611          1     0.00556
  613          1     0.00551
  615          2     0.00878
  618          2     0.00547
  622          1     0.00573
  633          1     0.00549
  635          1     0.00549
  639          1     0.00540
  640          1     0.00590
  643          1     0.00596
  645          1     0.00560
  646          1     0.00571
  648          2     0.00547
  654          1     0.00550
  657          1     0.00995
  662          1     0.00606
  663          1     0.00592
  664          1     0.00552
  674          1     0.00535
  679          1     0.00518
  682          2     0.00962
  687          1     0.00519
  693          1     0.00547
  699          1     0.00578
  703          1     0.00576
  711          2     0.00599
  714          1     0.00530
  725          1     0.00579
  746          1     0.00605
  750          1     0.00665
  819          1     0.00573
  842          1     0.00613
  885          1     0.00539
took 593 iterations
Trial Time:          0.06053
    0          1     0.02984
   21          1     0.03374
   23          1     0.01535
   40          1     0.13113
   41          1     0.01026
   42          2     0.06429
   43          1     0.16445
   44          3     0.19476
   45          4     0.07856
   46          3     0.11356
   47          5     0.52383
   48          8     0.33096
   49         12     0.24367
   50          9     0.20032
   51         13     0.48806
   52         23     0.55156
   53         36     1.16083
   54         49     1.18257
   55         49     0.81336
   56         77     0.86559
   57         98     1.24453
   58        171     1.75485
   59        195     1.21957
   60        255     1.31962
   61        337     1.79505
   62        423     1.47646
   63        487     1.38292
   64        613     1.34857
   65        669     1.40157
   66        725     1.24509
   67        777     1.15522
   68        872     0.98719
   69        867     0.92531
   70        814     0.78559
   71        911     0.86267
   72        915     0.65127
   73        926     0.65006
   74        930     0.60102
   75        934     0.54066
   76        876     0.48786
   77        932     0.44858
   78        945     0.46764
   79        979     0.39794
   80        929     0.32583
   81        910     0.31863
   82        909     0.33953
   83        869     0.29702
   84        946     0.32212
   85        952     0.29851
   86        867     0.25950
   87        828     0.20730
   88        815     0.24215
   89        838     0.20980
   90        839     0.18514
   91        826     0.20856
   92        840     0.20654
   93        803     0.19841
   94        791     0.18176
   95        762     0.16166
   96        778     0.18388
   97        824     0.17821
   98        828     0.14317
   99        825     0.17012
  100        780     0.15063
  101        776     0.14051
  102        743     0.13025
  103        759     0.15083
  104        752     0.12549
  105        715     0.13172
  106        675     0.11741
  107        751     0.12348
  108        676     0.11441
  109        719     0.11094
  110        693     0.11042
  111        669     0.11205
  112        716     0.10800
  113        679     0.09627
  114        656     0.10037
  115        662     0.09689
  116        613     0.09665
  117        664     0.08907
  118        677     0.08443
  119        627     0.08871
  120        623     0.09463
  121        611     0.08413
  122        619     0.08868
  123        623     0.08579
  124        641     0.09432
  125        600     0.07927
  126        584     0.08906
  127        614     0.07819
  128        593     0.07566
  129        603     0.07295
  130        569     0.07814
  131        560     0.07056
  132        574     0.07242
  133        582     0.08185
  134        606     0.08205
  135        571     0.06385
  136        521     0.06558
  137        546     0.06835
  138        535     0.07292
  139        521     0.06457
  140        539     0.06442
  141        566     0.07359
  142        588     0.06670
  143        562     0.06603
  144        543     0.07363
  145        552     0.06567
  146        514     0.06023
  147        519     0.06715
  148        521     0.05878
  149        522     0.06087
  150        518     0.05739
  151        513     0.05796
  152        548     0.07996
  153        517     0.05764
  154        497     0.05849
  155        477     0.05543
  156        542     0.07122
  157        506     0.05177
  158        505     0.05099
  159        525     0.07896
  160        449     0.06185
  161        505     0.06313
  162        539     0.06279
  163        482     0.05052
  164        511     0.05735
  165        526     0.05765
  166        463     0.04968
  167        501     0.04848
  168        478     0.06387
  169        433     0.04501
  170        470     0.05589
  171        487     0.05129
  172        487     0.05455
  173        537     0.05292
  174        468     0.04537
  175        463     0.04480
  176        493     0.06593
  177        478     0.05290
  178        459     0.04369
  179        483     0.05477
  180        412     0.05600
  181        493     0.05758
  182        460     0.06019
  183        465     0.04802
  184        445     0.04336
  185        439     0.05002
  186        446     0.04494
  187        437     0.04477
  188        434     0.04603
  189        429     0.05777
  190        462     0.04812
  191        474     0.04784
  192        428     0.04927
  193        422     0.04021
  194        437     0.07377
  195        377     0.03844
  196        442     0.04557
  197        430     0.03870
  198        382     0.04806
  199        454     0.04974
  200        391     0.03935
  201        411     0.03862
  202        382     0.03781
  203        427     0.05178
  204        405     0.04743
  205        406     0.03358
  206        412     0.04473
  207        406     0.04284
  208        426     0.04229
  209        447     0.04839
  210        413     0.03933
  211        388     0.03962
  212        362     0.04650
  213        394     0.04547
  214        419     0.04131
  215        406     0.03889
  216        416     0.04002
  217        378     0.04851
  218        387     0.04567
  219        387     0.04018
  220        396     0.03854
  221        408     0.03826
  222        406     0.03601
  223        400     0.04027
  224        387     0.04543
  225        391     0.04455
  226        385     0.04175
  227        361     0.04205
  228        420     0.04077
  229        375     0.04533
  230        411     0.04508
  231        359     0.03777
  232        356     0.03503
  233        333     0.03163
  234        393     0.04179
  235        340     0.03526
  236        359     0.03443
  237        387     0.04801
  238        408     0.04286
  239        378     0.03762
  240        347     0.03122
  241        374     0.03947
  242        371     0.03400
  243        359     0.03644
  244        360     0.03617
  245        360     0.03933
  246        344     0.03357
  247        346     0.03027
  248        326     0.03067
  249        326     0.03042
  250        368     0.04005
  251        360     0.03710
  252        361     0.04080
  253        326     0.03063
  254        399     0.03513
  255        374     0.03729
  256        339     0.03445
  257        358     0.03627
  258        339     0.02847
  259        352     0.03235
  260        348     0.03029
  261        347     0.03019
  262        316     0.03231
  263        357     0.03706
  264        308     0.04193
  265        333     0.03093
  266        353     0.02779
  267        295     0.02610
  268        335     0.03658
  269        346     0.02944
  270        338     0.02873
  271        329     0.03218
  272        349     0.03906
  273        356     0.03120
  274        334     0.03797
  275        343     0.03230
  276        309     0.02553
  277        330     0.03755
  278        335     0.03961
  279        325     0.03308
  280        327     0.02808
  281        328     0.02690
  282        351     0.04747
  283        329     0.04134
  284        310     0.03119
  285        348     0.03473
  286        337     0.03546
  287        330     0.03490
  288        313     0.03639
  289        304     0.03380
  290        333     0.03189
  291        326     0.03494
  292        348     0.03470
  293        341     0.02716
  294        333     0.03218
  295        324     0.02996
  296        344     0.03324
  297        292     0.03001
  298        306     0.03053
  299        295     0.02991
  300        316     0.03276
  301        320     0.03333
  302        308     0.03468
  303        340     0.02612
  304        296     0.03008
  305        315     0.03115
  306        287     0.03138
  307        252     0.03581
  308        271     0.02675
  309        289     0.02851
  310        261     0.03005
  311        261     0.02673
  312        231     0.02554
  313        262     0.03181
  314        237     0.02362
  315        211     0.02423
  316        194     0.02740
  317        201     0.02492
  318        133     0.02296
  319        157     0.02217
  320        154     0.02359
  321        119     0.01957
  322        112     0.02161
  323        114     0.01929
  324        109     0.01470
  325         97     0.02058
  326         90     0.01455
  327         80     0.01369
  328         90     0.01738
  329         61     0.01858
  330         77     0.01754
  331         61     0.01858
  332         72     0.01941
  333         61     0.01827
  334         49     0.01846
  335         63     0.02259
  336         60     0.01628
  337         55     0.01866
  338         50     0.01498
  339         61     0.01790
  340         51     0.01819
  341         62     0.01776
  342         39     0.01676
  343         32     0.01489
  344         30     0.01658
  345         37     0.01696
  346         42     0.01292
  347         37     0.01152
  348         37     0.01575
  349         40     0.01476
  350         42     0.01553
  351         37     0.01917
  352         47     0.01474
  353         31     0.01591
  354         21     0.01633
  355         28     0.01039
  356         23     0.01565
  357         26     0.01433
  358         33     0.01420
  359         32     0.01476
  360         31     0.01038
  361         28     0.00989
  362         23     0.00961
  363         29     0.01039
  364         22     0.01453
  365         26     0.01583
  366         22     0.00937
  367         19     0.00897
  368         18     0.00908
  369         21     0.01172
  370         24     0.01090
  371         29     0.01069
  372         21     0.00895
  373         17     0.00888
  374         28     0.01050
  375         16     0.01471
  376         19     0.01001
  377         18     0.01252
  378         18     0.01273
  379         22     0.00943
  380         16     0.00885
  381         25     0.01174
  382         18     0.00946
  383         15     0.00858
  384         17     0.00879
  385         13     0.00797
  386         17     0.00866
  387         25     0.01382
  388         23     0.01089
  389         15     0.00841
  390         24     0.01397
  391         16     0.01197
  392         18     0.01825
  393         16     0.01001
  394         19     0.01485
  395         12     0.01210
  396         21     0.00918
  397         21     0.01077
  398         14     0.00843
  399         15     0.01239
  400         22     0.00945
  401         15     0.00856
  402         15     0.01084
  403          7     0.01198
  404         13     0.01085
  405         15     0.00844
  406         13     0.01355
  407         11     0.00854
  408         13     0.01178
  409         10     0.00781
  410         17     0.01321
  411          9     0.00779
  412         14     0.00843
  413         12     0.01178
  414         12     0.01410
  415          9     0.00703
  416         15     0.00849
  417          7     0.00656
  418          6     0.00878
  419          8     0.01423
  420         14     0.00866
  421          6     0.01024
  422          7     0.01060
  423         11     0.01153
  424         10     0.00725
  425         16     0.00899
  426         14     0.00828
  427         13     0.01280
  428         11     0.00816
  429          8     0.00862
  430         12     0.01299
  431         12     0.01508
  432         12     0.01029
  433         11     0.00965
  434         11     0.00813
  435         10     0.01161
  436         10     0.01181
  437         11     0.00827
  438         11     0.00755
  439          9     0.00772
  440          6     0.01244
  441         10     0.01079
  442          7     0.00723
  443          7     0.00726
  444         12     0.00763
  445          8     0.00770
  446          6     0.00728
  447          8     0.01021
  448          2     0.00914
  449         13     0.00828
  450          7     0.00711
  451          7     0.00697
  452         11     0.01220
  453         12     0.00828
  454         17     0.00901
  455          7     0.00718
  456          4     0.00629
  457         11     0.01242
  458          5     0.00669
  459          9     0.00741
  460          9     0.00796
  461          7     0.00819
  462          4     0.00639
  463          7     0.01074
  464          7     0.01119
  465          8     0.00734
  466          7     0.01042
  467          9     0.01271
  468          2     0.00587
  469          3     0.00618
  470          6     0.00680
  471          7     0.00682
  472          8     0.00724
  473          9     0.00757
  474          3     0.00659
  475          2     0.00578
  476          7     0.00867
  477          7     0.00982
  478          4     0.00675
  479         13     0.00797
  480          4     0.00924
  481         10     0.01161
  482          6     0.00728
  483         10     0.00781
  484          1     0.00568
  485          9     0.01091
  486          7     0.00704
  487          8     0.01323
  488          5     0.00669
  489          5     0.00644
  490          6     0.00710
  491          4     0.00623
  492          5     0.00982
  493          3     0.00985
  494          7     0.01348
  495          2     0.00572
  496          6     0.01107
  497          3     0.00614
  498          6     0.00674
  499          6     0.01143
  500          3     0.00605
  501          6     0.01164
  502          6     0.00706
  503          1     0.00896
  504          4     0.00671
  505          4     0.00680
  506          4     0.00607
  507          3     0.00558
  508          2     0.00573
  509          4     0.00638
  510          8     0.01244
  511          2     0.00587
  512          2     0.00583
  513          3     0.01035
  515          5     0.00668
  516          4     0.00666
  517          4     0.00602
  518          5     0.00668
  519          1     0.00592
  520          7     0.00642
  521          4     0.00609
  522          4     0.00607
  523          2     0.00571
  524          5     0.00646
  525          5     0.00657
  526          1     0.00577
  527          5     0.00962
  528          4     0.01159
  529          1     0.00566
  530          4     0.00615
  532          2     0.00594
  533          4     0.00608
  534          2     0.00551
  535          4     0.00614
  536          3     0.00612
  537          2     0.00571
  538          3     0.00591
  539          4     0.00603
  540          1     0.00524
  541          2     0.00553
  542          1     0.00559
  543          4     0.00636
  544          2     0.01027
  545          4     0.00918
  546          3     0.00588
  548          4     0.00618
  549          1     0.00582
  550          3     0.00912
  551          3     0.00922
  552          3     0.00595
  553          3     0.00598
  554          3     0.00628
  555          1     0.00537
  556          2     0.00614
  557          2     0.00601
  558          1     0.00552
  559          1     0.00575
  561          3     0.00594
  562          3     0.00568
  563          1     0.00513
  564          1     0.00515
  565          3     0.00582
  566          2     0.00585
  567          1     0.00563
  568          1     0.00543
  569          2     0.00563
  570          2     0.00608
  571          1     0.00561
  574          3     0.00576
  576          1     0.00532
  578          1     0.00559
  581          1     0.00543
  582          1     0.00554
  584          1     0.00966
  585          1     0.00565
  586          1     0.00537
  587          1     0.00534
  588          1     0.00528
  589          1     0.00556
  591          1     0.00557
  593          4     0.00619
  594          1     0.00581
  598          1     0.00527
  599          2     0.00534
  601          1     0.00535
  603          1     0.00528
  604          1     0.00528
  606          1     0.00537
  607          1     0.00547
  608          1     0.00571
  609          1     0.00538
  611          4     0.02885
  617          2     0.00577
  619          2     0.00570
  620          1     0.00515
  622          4     0.00591
  623          2     0.00911
  624          1     0.00565
  627          1     0.00551
  629          1     0.00520
  631          2     0.00514
  634          2     0.00536
  638          1     0.00548
  639          1     0.00503
  641          1     0.00517
  642          1     0.00887
  645          1     0.00555
  651          1     0.00568
  656          1     0.00532
  657          1     0.00533
  663          1     0.00539
  664          1     0.00545
  665          1     0.00540
  668          1     0.00577
  671          1     0.00538
  672          1     0.00541
  675          1     0.00574
  678          1     0.00579
  681          1     0.00548
  683          1     0.00989
  688          1     0.00554
  692          1     0.00558
  699          1     0.00524
  700          1     0.00921
  703          1     0.00556
  705          1     0.00538
  708          1     0.00561
  713          1     0.00533
  728          1     0.00511
  733          1     0.00558
  737          1     0.00597
  743          1     0.00529
  746          2     0.00576
  747          1     0.00601
  773          1     0.00561
  775          1     0.00617
  847          1     0.00541
  868          1     0.00589
  903          1     0.00541
took 602 iterations
Trial Time:          0.06088
    0          1     0.01605
  138          1     0.15193
  139          2     0.02131
  141          1     0.03130
  142          1     0.02867
  145          1     0.00589
  146          2     0.01952
  147          2     0.01410
  148          1     0.03046
  151          1     0.01246
  152          2     0.31473
  153          6     0.19588
  154          7     0.70092
  155         15     0.34846
  156         17     0.37696
  157         22     0.62012
  158         27     0.85599
  159         39     1.13363
  160         66     0.97844
  161         79     1.02003
  162        115     1.14864
  163        125     1.39262
  164        186     1.27205
  165        201     1.63522
  166        295     1.37418
  167        399     1.67443
  168        434     1.14064
  169        519     1.54598
  170        594     1.25154
  171        665     1.27712
  172        732     1.22400
  173        827     1.16241
  174        804     0.90251
  175        882     0.88115
  176        883     0.82474
  177        935     0.77451
  178        938     0.73830
  179        938     0.65093
  180        869     0.49504
  181        937     0.49510
  182        966     0.52132
  183        910     0.47838
  184        917     0.37395
  185        937     0.41168
  186        871     0.35224
  187        956     0.42051
  188        867     0.29259
  189        974     0.31888
  190        903     0.30540
  191        890     0.26415
  192        818     0.25754
  193        863     0.24129
  194        886     0.24513
  195        870     0.19856
  196        830     0.20292
  197        888     0.24445
  198        852     0.20624
  199        842     0.18768
  200        854     0.17777
  201        758     0.15912
  202        766     0.15753
  203        839     0.17447
  204        787     0.15867
  205        775     0.14603
  206        821     0.15668
  207        780     0.13927
  208        725     0.12755
  209        730     0.14328
  210        728     0.11613
  211        727     0.11639
  212        717     0.12092
  213        710     0.10614
  214        691     0.12279
  215        704     0.11984
  216        712     0.11604
  217        653     0.09609
  218        655     0.10030
  219        692     0.11396
  220        692     0.10169
  221        662     0.10291
  222        635     0.08348
  223        634     0.08892
  224        647     0.10865
  225        623     0.08711
  226        658     0.08810
  227        610     0.08572
  228        627     0.08254
  229        666     0.09175
  230        596     0.07490
  231        617     0.09224
  232        565     0.08225
  233        602     0.08501
  234        566     0.06849
  235        550     0.07339
  236        546     0.06583
  237        614     0.07499
  238        559     0.07318
  239        552     0.07605
  240        576     0.06752
  241        533     0.07322
  242        560     0.07051
  243        549     0.08122
  244        530     0.07037
  245        566     0.07002
  246        570     0.07761
  247        529     0.05641
  248        509     0.05693
  249        541     0.07245
  250        524     0.05125
  251        551     0.09076
  252        550     0.06999
  253        530     0.05934
  254        511     0.06821
  255        544     0.06542
  256        500     0.06151
  257        534     0.05627
  258        535     0.08063
  259        516     0.05685
  260        547     0.05976
  261        519     0.06233
  262        510     0.05698
  263        517     0.05836
  264        452     0.04959
  265        538     0.05777
  266        492     0.05288
  267        491     0.05919
  268        496     0.05554
  269        501     0.05440
  270        490     0.05288
  271        500     0.06120
  272        475     0.06593
  273        463     0.05137
  274        497     0.05025
  275        462     0.04953
  276        461     0.06067
  277        482     0.05869
  278        514     0.05741
  279        515     0.05797
  280        486     0.04828
  281        477     0.04803
  282        466     0.04995
  283        487     0.06592
  284        474     0.04407
  285        472     0.05278
  286        464     0.05638
  287        451     0.04652
  288        454     0.05040
  289        449     0.04917
  290        436     0.04450
  291        447     0.04889
  292        451     0.05517
  293        436     0.05016
  294        438     0.04598
  295        472     0.04693
  296        450     0.04849
  297        463     0.04679
  298        415     0.04264
  299        452     0.05225
  300        414     0.04498
  301        425     0.04689
  302        399     0.04834
  303        406     0.04360
  304        414     0.04188
  305        444     0.04085
  306        411     0.04124
  307        396     0.04676
  308        426     0.04421
  309        373     0.03246
  310        450     0.05156
  311        414     0.04373
  312        374     0.03668
  313        424     0.03574
  314        405     0.04466
  315        379     0.03264
  316        382     0.04627
  317        394     0.03561
  318        389     0.03892
  319        407     0.03798
  320        417     0.03978
  321        387     0.03996
  322        394     0.04589
  323        395     0.04839
  324        421     0.03705
  325        433     0.03456
  326        411     0.03718
  327        394     0.04307
  328        374     0.03335
  329        430     0.04396
  330        367     0.04252
  331        374     0.03798
  332        355     0.03656
  333        383     0.05023
  334        412     0.04513
  335        373     0.04713
  336        385     0.03346
  337        390     0.04169
  338        399     0.04025
  339        405     0.04361
  340        398     0.04383
  341        370     0.04167
  342        382     0.03820
  343        355     0.03882
  344        365     0.03442
  345        341     0.03824
  346        377     0.03354
  347        367     0.03445
  348        326     0.02968
  349        378     0.03592
  350        361     0.03123
  351        343     0.03296
  352        390     0.03607
  353        337     0.03502
  354        347     0.03248
  355        373     0.03519
  356        334     0.03662
  357        354     0.03945
  358        348     0.03506
  359        352     0.03714
  360        381     0.03653
  361        348     0.03684
  362        372     0.03222
  363        323     0.02894
  364        342     0.03403
  365        317     0.03797
  366        352     0.03577
  367        333     0.02963
  368        336     0.05130
  369        353     0.03373
  370        315     0.03092
  371        361     0.03287
  372        322     0.02714
  373        344     0.03245
  374        342     0.03410
  375        323     0.03732
  376        325     0.03036
  377        366     0.03358
  378        346     0.03177
  379        314     0.03068
  380        319     0.03240
  381        334     0.03205
  382        313     0.03792
  383        313     0.03170
  384        385     0.04291
  385        367     0.04075
  386        322     0.04111
  387        327     0.03116
  388        338     0.03362
  389        350     0.03060
  390        328     0.03571
  391        331     0.03053
  392        342     0.03477
  393        335     0.03750
  394        310     0.03363
  395        329     0.03558
  396        334     0.03088
  397        331     0.03318
  398        301     0.03845
  399        331     0.03346
  400        311     0.03209
  401        345     0.03439
  402        339     0.03351
  403        296     0.03277
  404        308     0.03359
  405        280     0.02598
  406        303     0.03317
  407        306     0.03331
  408        330     0.03585
  409        320     0.03172
  410        290     0.03153
  411        291     0.02711
  412        296     0.03289
  413        303     0.03462
  414        283     0.03046
  415        288     0.03203
  416        296     0.03161
  417        253     0.03207
  418        255     0.02848
  419        237     0.02988
  420        216     0.02953
  421        200     0.02155
  422        176     0.02744
  423        171     0.02288
  424        188     0.02343
  425        163     0.02143
  426        135     0.02057
  427        100     0.01394
  428        119     0.02115
  429         83     0.01937
  430         84     0.01494
  431        100     0.01808
  432         83     0.01939
  433         83     0.01398
  434         92     0.01771
  435         71     0.01995
  436         73     0.01951
  437         62     0.02455
  438         70     0.01616
  439         64     0.01765
  440         72     0.01448
  441         58     0.01921
  442         46     0.01447
  443         46     0.01472
  444         70     0.01900
  445         51     0.01396
  446         36     0.01405
  447         54     0.02002
  448         54     0.01835
  449         44     0.01554
  450         33     0.01445
  451         54     0.01941
  452         42     0.01445
  453         29     0.01101
  454         25     0.00983
  455         33     0.01358
  456         39     0.01622
  457         35     0.01622
  458         32     0.01422
  459         31     0.01034
  460         38     0.01385
  461         33     0.01085
  462         27     0.01085
  463         30     0.01055
  464         32     0.01055
  465         27     0.01141
  466         22     0.00940
  467         27     0.01519
  468         32     0.01388
  469         17     0.01248
  470         29     0.01309
  471         22     0.00971
  472         15     0.01227
  473         21     0.01405
  474         24     0.01101
  475         26     0.00993
  476         22     0.01029
  477         12     0.00861
  478         22     0.00949
  479         29     0.01874
  480         15     0.00856
  481         21     0.01078
  482         23     0.01408
  483         23     0.01043
  484         20     0.01197
  485         20     0.00890
  486         21     0.00978
  487         22     0.00935
  488         23     0.01338
  489         21     0.01003
  490         17     0.00863
  491         18     0.00878
  492         17     0.01222
  493         20     0.00959
  494         18     0.00899
  495         18     0.01457
  496         15     0.00873
  497         20     0.01695
  498         19     0.00911
  499         19     0.01309
  500         16     0.00854
  501         10     0.00788
  502         10     0.01016
  503         12     0.00783
  504         17     0.00880
  505         20     0.01164
  506         19     0.01024
  507         21     0.01205
  508         16     0.01110
  509         15     0.01127
  510         19     0.00929
  511         10     0.00792
  512          4     0.00617
  513         13     0.01036
  514          9     0.00739
  515          9     0.00762
  516         13     0.01345
  517          7     0.00979
  518         17     0.00858
  519         13     0.00808
  520          9     0.00771
  521          9     0.00730
  522          9     0.01076
  523         12     0.01578
  524         11     0.01107
  525         13     0.01331
  526         19     0.01338
  527         11     0.01109
  528          7     0.00702
  529         11     0.00785
  530          8     0.01162
  531         11     0.01240
  532         10     0.00790
  533          9     0.00990
  534         12     0.01197
  535          6     0.01136
  536          7     0.00843
  537          6     0.00691
  538         15     0.01333
  539         15     0.00852
  540         16     0.00843
  541          9     0.00760
  542          8     0.00756
  543         14     0.00966
  544          4     0.00574
  545          8     0.00989
  546          9     0.00794
  547          7     0.00749
  548          6     0.01040
  549          7     0.01147
  550         11     0.01230
  551          8     0.00734
  552         14     0.00853
  553          7     0.00691
  554          9     0.00983
  555          6     0.00698
  556          8     0.00982
  557          5     0.00639
  558         14     0.00874
  559          8     0.00748
  560          8     0.00751
  561          9     0.00973
  562         15     0.00837
  563         12     0.00815
  564          8     0.00936
  565          6     0.00727
  566          5     0.00645
  567          7     0.01148
  568          6     0.00687
  569          7     0.00825
  570          3     0.00611
  571         10     0.01193
  572          4     0.01003
  573          2     0.00570
  574          7     0.00725
  575          6     0.01178
  576          6     0.00926
  577          6     0.00664
  578          5     0.00677
  579          2     0.00604
  580          6     0.00694
  581          7     0.00707
  582         10     0.00735
  583          3     0.00895
  584          9     0.00903
  585          7     0.01135
  586          9     0.01213
  587          6     0.00669
  588          4     0.00632
  589          7     0.00700
  590          8     0.01239
  591          3     0.00619
  592          8     0.00727
  593          8     0.01074
  594          6     0.01006
  595          5     0.00634
  596          8     0.01235
  597          4     0.00774
  598          4     0.00955
  599          1     0.00604
  600          6     0.00683
  601         11     0.01176
  602          3     0.00601
  603          8     0.00898
  604          4     0.00637
  605          4     0.00659
  606          1     0.00581
  608          8     0.01110
  609          5     0.00684
  610          7     0.01166
  611          5     0.01082
  612          3     0.00574
  613          2     0.00594
  615          3     0.00582
  616          4     0.00635
  617          2     0.01164
  618          3     0.00612
  619          3     0.00579
  620          3     0.00582
  621          2     0.00565
  622          7     0.00736
  623          2     0.00592
  624          5     0.01308
  625          5     0.00702
  626          4     0.00609
  627          7     0.01205
  628          5     0.00701
  629          2     0.00555
  630          3     0.00613
  631          1     0.00590
  632          4     0.00624
  633          4     0.00654
  634          4     0.00673
  635          4     0.00966
  636          3     0.00577
  637          6     0.00763
  638          7     0.00762
  639          2     0.00616
  641          1     0.00562
  642          2     0.00568
  643          3     0.00600
  644          3     0.00598
  645          4     0.00908
  646          1     0.00601
  647          4     0.00847
  648          1     0.00570
  649          3     0.00571
  650          3     0.00575
  651          1     0.00610
  652          3     0.00941
  653          3     0.00587
  656          3     0.00589
  657          2     0.00952
  658          2     0.00597
  659          2     0.00538
  660          1     0.00518
  661          3     0.00615
  662          3     0.00565
  664          5     0.00609
  665          2     0.00945
  666          2     0.00522
  667          2     0.00585
  668          2     0.00643
  669          2     0.00774
  672          2     0.00686
  673          2     0.00660
  675          1     0.00691
  677          3     0.00709
  679          1     0.00677
  681          3     0.00709
  683          3     0.00955
  686          2     0.00728
  688          1     0.00660
  689          1     0.00665
  690          1     0.00643
  692          2     0.00724
  694          2     0.00658
  697          1     0.00673
  699          1     0.00659
  702          1     0.00665
  703          3     0.00685
  708          2     0.00661
  710          1     0.00631
  714          2     0.00665
  715          1     0.00633
  716          4     0.01137
  717          1     0.00660
  718          1     0.00629
  719          2     0.00697
  720          2     0.00673
  721          1     0.00640
  722          1     0.00689
  725          3     0.00688
  727          2     0.03440
  731          2     0.00644
  732          1     0.00579
  733          1     0.00567
  734          1     0.00576
  735          1     0.00581
  736          1     0.00611
  741          1     0.00575
  743          1     0.00973
  744          1     0.00613
  746          1     0.00592
  751          1     0.00587
  758          1     0.00601
  759          1     0.00566
  761          1     0.00592
  763          1     0.00570
  767          1     0.00618
  772          1     0.00597
  777          1     0.00577
  778          2     0.00588
  782          2     0.00649
  785          1     0.00605
  786          1     0.01013
  796          1     0.00601
  800          1     0.00557
  805          1     0.00582
  807          1     0.00581
  808          1     0.00657
  811          1     0.01061
  815          1     0.00607
  821          1     0.00597
  827          1     0.00598
  840          2     0.00615
  842          1     0.00585
  851          1     0.00589
  853          1     0.00592
  856          1     0.00597
  874          2     0.00700
  952          1     0.00695
  971          1     0.00655
 1014          1     0.00545
took 592 iterations
Trial Time:          0.06084
    0          1     0.05088
   13          1     0.00539
   14          1     0.09842
   15          1     0.11865
   17          2     0.17553
   18          2     0.11319
   19          6     0.39928
   20          6     0.27073
   21          4     0.05896
   22          9     0.43798
   23         11     1.04690
   24         30     0.90761
   25         49     0.94179
   26         47     0.83476
   27         72     1.02988
   28         83     1.23588
   29        124     1.24683
   30        151     1.33362
   31        206     1.57408
   32        285     1.81582
   33        366     1.36674
   34        423     1.28978
   35        482     1.14355
   36        645     1.46352
   37        645     1.16932
   38        700     1.22520
   39        762     1.09105
   40        831     1.22363
   41        818     0.86936
   42        880     0.87553
   43        954     0.89219
   44        923     0.67936
   45        953     0.68449
   46        892     0.53166
   47        865     0.52173
   48        919     0.50161
   49       1007     0.45742
   50        919     0.40774
   51        916     0.37648
   52        949     0.43447
   53        912     0.32709
   54        944     0.39629
   55        843     0.29028
   56        865     0.27820
   57        853     0.25729
   58        867     0.28661
   59        901     0.25675
   60        816     0.19906
   61        915     0.23594
   62        858     0.22018
   63        802     0.19978
   64        821     0.19354
   65        898     0.21467
   66        820     0.20306
   67        791     0.16264
   68        773     0.15402
   69        834     0.20089
   70        806     0.15478
   71        747     0.14239
   72        797     0.13385
   73        795     0.14584
   74        762     0.15808
   75        717     0.12539
   76        714     0.14066
   77        706     0.13081
   78        672     0.10544
   79        738     0.11883
   80        708     0.11412
   81        716     0.11795
   82        712     0.11213
   83        674     0.10073
   84        707     0.10366
   85        664     0.10012
   86        661     0.10336
   87        702     0.10757
   88        659     0.08313
   89        666     0.10071
   90        660     0.08458
   91        617     0.07862
   92        631     0.09714
   93        604     0.08417
   94        639     0.08731
   95        602     0.07740
   96        594     0.08229
   97        660     0.08642
   98        586     0.07846
   99        583     0.09071
  100        588     0.08290
  101        537     0.07004
  102        584     0.07271
  103        521     0.07899
  104        566     0.06872
  105        582     0.08100
  106        575     0.06710
  107        553     0.07928
  108        542     0.07442
  109        529     0.06389
  110        573     0.06821
  111        558     0.07574
  112        583     0.07107
  113        546     0.08300
  114        548     0.06854
  115        534     0.06781
  116        553     0.06991
  117        541     0.06446
  118        509     0.06029
  119        516     0.07455
  120        515     0.05221
  121        531     0.06986
  122        554     0.06314
  123        537     0.06054
  124        537     0.06260
  125        540     0.05650
  126        499     0.06248
  127        507     0.06192
  128        521     0.05939
  129        527     0.05980
  130        516     0.05056
  131        485     0.05409
  132        530     0.06740
  133        498     0.05495
  134        483     0.05897
  135        504     0.06034
  136        505     0.05559
  137        514     0.05567
  138        496     0.05022
  139        466     0.05045
  140        476     0.06249
  141        501     0.05680
  142        472     0.05077
  143        487     0.05064
  144        483     0.05385
  145        458     0.06077
  146        508     0.04988
  147        441     0.05349
  148        515     0.05745
  149        485     0.04471
  150        425     0.05057
  151        460     0.04769
  152        472     0.04864
  153        494     0.05291
  154        479     0.05185
  155        461     0.05417
  156        457     0.05824
  157        498     0.05431
  158        440     0.04818
  159        401     0.04405
  160        423     0.04729
  161        410     0.05655
  162        471     0.05363
  163        423     0.03856
  164        463     0.05687
  165        418     0.03894
  166        434     0.04945
  167        418     0.04668
  168        447     0.04312
  169        422     0.04282
  170        389     0.04274
  171        405     0.05176
  172        419     0.03647
  173        451     0.04674
  174        409     0.04051
  175        411     0.04351
  176        423     0.04033
  177        417     0.03908
  178        410     0.03663
  179        413     0.04626
  180        421     0.03929
  181        394     0.03590
  182        392     0.04256
  183        385     0.03900
  184        395     0.04065
  185        411     0.03756
  186        392     0.03807
  187        402     0.04281
  188        388     0.04669
  189        414     0.05231
  190        410     0.04360
  191        410     0.03661
  192        415     0.04700
  193        371     0.03802
  194        388     0.03588
  195        447     0.04457
  196        375     0.03785
  197        410     0.05050
  198        360     0.03481
  199        383     0.04460
  200        371     0.03862
  201        379     0.03714
  202        394     0.04269
  203        355     0.03609
  204        379     0.03826
  205        378     0.03444
  206        382     0.03450
  207        392     0.04126
  208        367     0.03704
  209        350     0.03399
  210        406     0.04324
  211        373     0.04333
  212        344     0.03638
  213        370     0.04361
  214        356     0.03150
  215        404     0.03211
  216        370     0.04092
  217        360     0.03679
  218        358     0.03275
  219        388     0.04073
  220        341     0.03263
  221        301     0.03442
  222        381     0.03485
  223        346     0.03854
  224        330     0.05117
  225        292     0.03352
  226        358     0.02727
  227        349     0.03017
  228        353     0.03087
  229        353     0.03668
  230        322     0.03316
  231        351     0.03351
  232        360     0.03320
  233        334     0.02937
  234        360     0.03204
  235        329     0.02919
  236        323     0.03467
  237        333     0.03192
  238        319     0.03439
  239        342     0.03066
  240        347     0.03148
  241        342     0.02905
  242        334     0.03273
  243        350     0.03331
  244        316     0.03177
  245        330     0.03279
  246        332     0.02756
  247        337     0.03850
  248        321     0.03342
  249        309     0.03430
  250        345     0.03727
  251        370     0.04128
  252        329     0.03571
  253        353     0.03562
  254        349     0.03862
  255        332     0.03338
  256        346     0.03337
  257        349     0.03852
  258        311     0.03569
  259        339     0.04016
  260        320     0.03004
  261        340     0.03658
  262        326     0.03067
  263        320     0.03792
  264        346     0.02985
  265        301     0.03360
  266        314     0.03825
  267        328     0.03407
  268        328     0.03133
  269        295     0.03246
  270        263     0.03005
  271        324     0.04148
  272        279     0.02501
  273        313     0.03312
  274        342     0.02786
  275        320     0.03140
  276        312     0.02897
  277        287     0.02325
  278        287     0.03605
  279        275     0.02826
  280        284     0.02703
  281        280     0.02868
  282        271     0.03247
  283        260     0.02470
  284        268     0.03227
  285        222     0.02541
  286        220     0.02354
  287        196     0.05078
  288        199     0.02515
  289        189     0.02771
  290        183     0.02328
  291        166     0.02596
  292        122     0.01396
  293        148     0.02492
  294        115     0.02067
  295         96     0.01427
  296        104     0.01590
  297         92     0.01653
  298         81     0.02057
  299         72     0.01453
  300         88     0.01444
  301         93     0.01486
  302         65     0.01846
  303         76     0.02014
  304         67     0.02200
  305         62     0.02006
  306         53     0.02151
  307         57     0.01791
  308         59     0.01364
  309         54     0.01963
  310         55     0.01493
  311         55     0.01670
  312         56     0.02265
  313         50     0.02043
  314         42     0.02405
  315         39     0.01136
  316         29     0.01656
  317         44     0.01354
  318         33     0.01238
  319         43     0.01246
  320         40     0.01752
  321         33     0.01459
  322         34     0.01135
  323         43     0.01425
  324         41     0.01804
  325         26     0.01276
  326         32     0.01470
  327         34     0.01102
  328         32     0.01085
  329         17     0.00868
  330         37     0.01227
  331         27     0.01253
  332         30     0.01050
  333         28     0.01587
  334         21     0.00949
  335         21     0.01269
  336         26     0.01392
  337         29     0.01659
  338         14     0.00899
  339         26     0.01230
  340         27     0.01191
  341         25     0.01001
  342         14     0.01104
  343         22     0.00929
  344         25     0.01036
  345         19     0.00895
  346         16     0.01296
  347         20     0.01297
  348         24     0.01376
  349         20     0.00914
  350         26     0.01008
  351         18     0.00877
  352         15     0.00847
  353         16     0.01076
  354         24     0.01237
  355         20     0.00904
  356         19     0.01175
  357         17     0.00883
  358         24     0.01180
  359         17     0.01152
  360         15     0.00882
  361         15     0.01251
  362         15     0.00878
  363         13     0.00950
  364         20     0.00963
  365         17     0.01350
  366         13     0.00790
  367         20     0.01460
  368         19     0.00949
  369         23     0.01226
  370         17     0.00881
  371         16     0.01423
  372         12     0.00776
  373         14     0.01163
  374         19     0.01334
  375         15     0.00845
  376         11     0.00794
  377         13     0.00857
  378          7     0.00752
  379         13     0.00796
  380         15     0.00855
  381         14     0.00850
  382         10     0.00913
  383         10     0.00821
  384          9     0.01188
  385         10     0.00791
  386         12     0.01665
  387         20     0.01289
  388         12     0.01251
  389         11     0.01299
  390          7     0.00760
  391         10     0.00799
  392          8     0.01060
  393         10     0.01279
  394          8     0.00742
  395         10     0.00784
  396         13     0.01230
  397         15     0.01329
  398         10     0.00787
  399          9     0.00769
  400         11     0.01137
  401          8     0.00761
  402         17     0.01644
  403          7     0.01017
  404          9     0.00765
  405         12     0.00811
  406         11     0.00809
  407         11     0.01133
  408         10     0.00797
  409         11     0.00769
  410         15     0.00863
  411         10     0.00888
  412          4     0.00994
  413          6     0.00844
  414          8     0.00740
  415         10     0.01168
  416          8     0.00740
  417          9     0.00762
  418          2     0.00637
  419          9     0.00748
  420          9     0.00756
  421         18     0.01437
  422          7     0.00667
  423         11     0.00781
  424          7     0.00712
  425         10     0.00756
  426          7     0.00714
  427         12     0.01055
  428          4     0.00598
  429          8     0.00721
  430          7     0.00729
  431          9     0.01126
  432          6     0.00706
  433          5     0.00666
  434         11     0.01196
  435          7     0.00687
  436          8     0.00734
  437          2     0.00588
  438          7     0.01151
  439          3     0.00611
  440          3     0.00598
  441          5     0.00626
  442          9     0.00727
  443          5     0.00696
  444          3     0.02551
  445          9     0.00877
  446          5     0.00638
  447          8     0.00795
  448          7     0.01042
  449          4     0.01060
  450          6     0.00821
  451          3     0.00619
  452         10     0.01135
  453          8     0.01159
  454          9     0.00771
  455          9     0.00743
  456          7     0.00948
  457         10     0.01398
  458          5     0.00679
  459          7     0.01199
  460          5     0.00789
  461          7     0.00711
  462          4     0.00661
  463          3     0.00583
  464          6     0.01365
  465          6     0.01206
  466          3     0.00979
  467          7     0.00702
  468          6     0.00638
  469          4     0.00635
  470          3     0.00582
  471          6     0.01163
  472          5     0.00661
  473          1     0.00546
  474          4     0.00597
  475          4     0.01193
  476          4     0.00611
  477          3     0.00572
  478          5     0.00638
  479          4     0.00755
  480          4     0.00601
  481          2     0.00821
  482          5     0.01211
  483          2     0.00589
  484          3     0.00589
  485          3     0.00681
  486          3     0.00589
  487          4     0.00613
  488          3     0.00571
  489          3     0.00610
  490          8     0.00752
  491          5     0.01286
  492          3     0.00603
  493          3     0.00559
  494          6     0.00646
  495          1     0.00584
  497          3     0.01030
  498          4     0.00651
  499          3     0.00630
  500          1     0.00612
  501          2     0.00587
  502          3     0.00580
  503          6     0.00735
  504          5     0.00650
  505          5     0.00983
  506          4     0.00644
  507          4     0.00615
  509          4     0.00652
  510          2     0.00588
  511          2     0.00587
  513          5     0.01001
  514          2     0.00592
  515          3     0.00622
  516          3     0.00586
  517          3     0.01048
  518          2     0.00771
  519          2     0.00553
  520          5     0.00657
  521          1     0.00610
  522          3     0.00579
  524          1     0.00566
  525          5     0.01129
  526          2     0.00592
  529          2     0.00553
  530          1     0.00556
  531          1     0.00566
  532          6     0.00669
  534          2     0.00575
  535          2     0.00571
  536          2     0.00556
  537          1     0.00862
  538          2     0.00561
  539          2     0.00556
  540          1     0.00565
  541          1     0.00569
  542          2     0.00572
  544          2     0.00602
  546          1     0.00616
  547          1     0.00574
  551          2     0.00545
  552          3     0.00998
  555          2     0.00585
  558          1     0.00566
  559          1     0.00566
  560          2     0.00612
  562          2     0.00577
  563          1     0.00612
  564          1     0.00581
  566          2     0.00605
  569          1     0.00573
  570          1     0.00546
  571          2     0.00547
  575          2     0.00555
  578          2     0.00619
  579          1     0.00602
  580          1     0.00584
  582          1     0.00599
  585          1     0.00585
  586          1     0.00853
  587          2     0.00589
  588          2     0.00579
  589          1     0.00560
  590          1     0.00575
  592          3     0.00582
  594          2     0.00529
  595          3     0.01013
  596          1     0.00558
  598          1     0.00539
  603          1     0.00523
  606          2     0.00578
  609          1     0.00591
  611          1     0.00608
  615          2     0.01041
  617          1     0.00592
  626          2     0.00636
  629          1     0.00601
  633          1     0.00563
  634          1     0.00562
  642          2     0.00575
  646          1     0.00522
  648          1     0.00669
  649          1     0.00595
  650          1     0.00634
  654          2     0.01116
  657          1     0.00610
  662          1     0.00622
  666          1     0.00532
  676          1     0.00585
  677          1     0.00586
  679          1     0.01011
  686          1     0.00590
  689          1     0.00550
  698          1     0.00559
  705          1     0.00583
  707          1     0.00592
  711          1     0.00611
  718          2     0.00620
  719          1     0.00581
  744          1     0.00536
  746          1     0.00622
  822          1     0.00581
  839          1     0.00605
  882          1     0.00531
took 590 iterations
Trial Time:          0.06084
    0          1     0.02241
   34          1     1.31684
   35         10     0.12832
   36         12     0.46664
   37         14     0.33466
   38         12     0.18541
   39         24     0.66321
   40         38     0.82563
   41         52     0.98622
   42         76     2.45315
   43         93     1.33054
   44        156     1.12320
   45        148     0.91995
   46        212     1.47997
   47        262     1.21527
   48        344     1.48234
   49        406     1.52405
   50        533     1.35153
   51        543     1.18439
   52        651     1.23037
   53        711     1.23068
   54        773     1.19680
   55        824     0.95111
   56        897     1.00969
   57        908     0.87427
   58        898     0.76153
   59        939     0.74032
   60        908     0.69259
   61        926     0.62319
   62        944     0.55028
   63        926     0.43307
   64        961     0.50554
   65        902     0.43209
   66        957     0.38893
   67        971     0.38906
   68        980     0.34926
   69        924     0.34640
   70        868     0.33476
   71        895     0.31359
   72        862     0.24430
   73        868     0.25153
   74        796     0.22757
   75        852     0.23098
   76        881     0.24616
   77        827     0.20663
   78        830     0.20834
   79        849     0.23892
   80        888     0.19979
   81        810     0.17486
   82        775     0.19310
   83        830     0.17826
   84        806     0.19148
   85        766     0.14204
   86        765     0.15383
   87        823     0.16762
   88        761     0.13503
   89        774     0.13121
   90        740     0.11827
   91        763     0.11119
   92        741     0.13402
   93        671     0.11889
   94        723     0.12163
   95        688     0.11566
   96        674     0.12637
   97        662     0.10779
   98        667     0.10376
   99        687     0.10645
  100        687     0.10746
  101        682     0.09546
  102        635     0.10473
  103        657     0.09607
  104        667     0.09387
  105        674     0.09749
  106        671     0.09250
  107        618     0.09331
  108        637     0.08330
  109        616     0.09190
  110        618     0.08993
  111        624     0.08573
  112        657     0.08521
  113        586     0.07647
  114        575     0.07565
  115        556     0.08385
  116        579     0.07916
  117        623     0.07363
  118        539     0.07075
  119        548     0.07270
  120        564     0.07985
  121        556     0.06925
  122        568     0.08017
  123        555     0.06086
  124        576     0.07563
  125        565     0.06706
  126        561     0.07011
  127        556     0.07410
  128        510     0.05877
  129        525     0.05934
  130        532     0.06938
  131        512     0.06651
  132        548     0.06838
  133        514     0.06205
  134        549     0.05977
  135        497     0.06898
  136        518     0.06356
  137        526     0.06658
  138        524     0.06032
  139        537     0.06534
  140        516     0.06054
  141        514     0.06024
  142        472     0.06167
  143        492     0.05323
  144        516     0.05153
  145        498     0.05938
  146        527     0.05854
  147        519     0.05619
  148        522     0.05455
  149        509     0.04876
  150        492     0.05638
  151        546     0.05516
  152        493     0.05478
  153        520     0.06334
  154        478     0.05362
  155        465     0.05431
  156        497     0.05428
  157        483     0.04714
  158        494     0.04800
  159        435     0.05075
  160        459     0.04927
  161        471     0.05522
  162        547     0.05657
  163        448     0.05335
  164        442     0.05537
  165        448     0.04854
  166        456     0.04230
  167        468     0.05716
  168        469     0.05556
  169        435     0.04736
  170        468     0.04993
  171        454     0.05225
  172        434     0.04613
  173        450     0.04496
  174        448     0.04736
  175        440     0.04564
  176        458     0.04838
  177        438     0.04499
  178        451     0.05999
  179        432     0.04709
  180        413     0.04303
  181        440     0.04054
  182        422     0.04391
  183        423     0.04432
  184        409     0.04452
  185        418     0.03868
  186        448     0.04746
  187        446     0.04464
  188        405     0.03679
  189        412     0.04184
  190        378     0.04581
  191        411     0.04869
  192        413     0.04201
  193        386     0.04338
  194        381     0.03697
  195        377     0.04055
  196        397     0.04013
  197        446     0.05046
  198        459     0.03963
  199        410     0.04510
  200        399     0.03963
  201        365     0.03325
  202        397     0.03781
  203        386     0.04658
  204        381     0.04956
  205        375     0.04638
  206        399     0.03397
  207        385     0.03853
  208        393     0.04924
  209        371     0.03549
  210        401     0.03516
  211        400     0.04272
  212        376     0.04429
  213        390     0.03816
  214        382     0.04282
  215        382     0.04019
  216        384     0.03700
  217        400     0.04150
  218        405     0.04201
  219        382     0.04064
  220        390     0.04011
  221        406     0.03493
  222        357     0.04711
  223        391     0.04591
  224        368     0.04301
  225        344     0.03795
  226        374     0.03093
  227        372     0.03591
  228        349     0.03403
  229        372     0.02982
  230        353     0.04010
  231        336     0.03310
  232        369     0.03400
  233        323     0.03884
  234        353     0.02815
  235        347     0.02941
  236        339     0.03864
  237        344     0.03437
  238        370     0.03072
  239        355     0.03419
  240        391     0.03628
  241        381     0.03665
  242        335     0.03610
  243        336     0.03191
  244        344     0.02768
  245        326     0.03819
  246        323     0.03238
  247        331     0.02684
  248        334     0.03784
  249        338     0.04301
  250        337     0.03303
  251        337     0.03034
  252        343     0.03047
  253        360     0.03765
  254        337     0.03066
  255        326     0.03193
  256        329     0.02960
  257        333     0.03489
  258        315     0.03118
  259        318     0.03185
  260        313     0.02816
  261        351     0.03687
  262        320     0.03660
  263        335     0.03333
  264        279     0.02826
  265        345     0.02831
  266        302     0.03607
  267        351     0.03154
  268        335     0.02962
  269        337     0.04417
  270        350     0.04201
  271        338     0.03395
  272        328     0.03862
  273        357     0.03353
  274        321     0.03956
  275        349     0.03839
  276        356     0.03936
  277        329     0.03756
  278        344     0.03335
  279        323     0.02983
  280        331     0.03442
  281        328     0.03334
  282        310     0.03853
  283        347     0.03355
  284        306     0.02941
  285        303     0.03004
  286        292     0.03087
  287        310     0.03129
  288        293     0.02453
  289        309     0.03011
  290        342     0.03845
  291        303     0.03157
  292        313     0.03066
  293        294     0.03169
  294        331     0.02841
  295        301     0.03300
  296        271     0.02743
  297        260     0.03120
  298        260     0.02847
  299        238     0.02455
  300        214     0.02634
  301        219     0.02915
  302        194     0.02553
  303        218     0.02849
  304        187     0.02406
  305        170     0.01956
  306        144     0.01685
  307        140     0.02691
  308        137     0.01793
  309        110     0.01776
  310         88     0.01817
  311        103     0.01430
  312        110     0.01433
  313         91     0.01459
  314         90     0.02040
  315         79     0.01658
  316         71     0.02071
  317         71     0.02333
  318         78     0.02354
  319         70     0.01928
  320         74     0.02331
  321         76     0.01766
  322         54     0.01595
  323         51     0.01747
  324         45     0.01749
  325         53     0.01368
  326         41     0.01547
  327         47     0.02029
  328         41     0.01481
  329         51     0.02294
  330         41     0.01760
  331         45     0.01496
  332         38     0.01174
  333         42     0.01610
  334         38     0.01499
  335         42     0.01628
  336         40     0.01221
  337         26     0.01274
  338         32     0.01290
  339         38     0.01365
  340         37     0.01441
  341         37     0.01356
  342         26     0.01414
  343         27     0.01298
  344         30     0.01094
  345         19     0.00921
  346         37     0.01176
  347         32     0.01057
  348         28     0.01699
  349         22     0.01098
  350         23     0.01070
  351         25     0.00952
  352         21     0.01345
  353         28     0.01471
  354          8     0.00768
  355         20     0.01334
  356         16     0.00855
  357         25     0.01528
  358         34     0.01525
  359         15     0.00830
  360         23     0.01273
  361         15     0.00861
  362         26     0.01076
  363         22     0.00958
  364         20     0.00928
  365         20     0.01181
  366         22     0.01056
[...]
  629          2     0.00564
  630          2     0.00569
  631          2     0.00587
  632          3     0.00582
  633          3     0.00621
  634          1     0.00556
  635          3     0.00574
  636          3     0.00562
  637          2     0.00926
  640          2     0.00575
  641          1     0.00576
  642          3     0.01033
  643          1     0.00563
  644          1     0.00577
  645          3     0.00594
  646          1     0.00567
  649          1     0.00517
  650          1     0.00530
  651          3     0.00601
  654          2     0.00699
  655          3     0.00654
  657          2     0.00695
  658          1     0.00677
  659          1     0.00664
  665          1     0.00654
  667          2     0.00685
  668          3     0.00659
  669          1     0.00653
  671          1     0.00633
  672          3     0.00672
  674          1     0.00652
  678          1     0.00646
  680          2     0.00604
  681          1     0.00645
  683          1     0.00594
  686          1     0.00601
  687          1     0.00628
  689          1     0.00611
  690          2     0.00638
  691          1     0.01003
  692          1     0.00584
  693          2     0.00603
  695          1     0.00873
  697          2     0.00619
  699          1     0.00609
  700          2     0.00609
  701          1     0.00570
  702          2     0.00658
  703          3     0.00636
  706          1     0.00593
  708          1     0.00593
  709          1     0.00569
  710          1     0.00558
  712          1     0.00577
  716          1     0.00594
  717          1     0.00541
  719          1     0.00572
  720          1     0.00597
  725          1     0.00597
  726          2     0.00993
  727          1     0.00615
  732          1     0.00619
  739          1     0.00592
  743          1     0.00564
  747          2     0.00555
  749          1     0.01001
  753          1     0.00560
  754          1     0.00549
  758          2     0.00576
  759          1     0.00590
  760          1     0.00559
  771          1     0.00562
  775          1     0.00603
  778          1     0.00592
  781          1     0.00673
  782          1     0.00576
  783          1     0.03078
  797          1     0.00605
  801          2     0.00645
  810          1     0.00578
  813          1     0.00574
  815          1     0.00763
  827          2     0.00763
  850          1     0.00608
  857          1     0.00793
  931          1     0.00627
  934          1     0.00624
  986          1     0.00504
took 599 iterations
Trial Time:          0.06128
    0          1     0.01516
   97          1     0.14978
   99          1     0.00909
  104          2     0.48785
  105          5     0.42991
  106          5     0.11957
  107         10     0.35422
  108         12     0.45678
  109         10     0.31991
  110         15     0.28978
  111         18     0.66255
  112         30     1.41018
  113         48     1.06922
  114         90     1.41519
  115        123     1.94076
  116        165     1.57530
  117        217     1.15875
  118        283     1.45307
  119        384     1.46194
  120        447     1.52564
  121        545     1.35319
  122        597     1.17684
  123        673     1.28424
  124        718     1.20976
  125        769     1.19560
  126        827     1.07619
  127        848     0.88685
  128        874     0.81371
  129        861     0.69842
  130        938     0.75513
  131        939     0.68495
  132        947     0.57432
  133        956     0.54625
  134        945     0.48976
  135        927     0.45492
  136        906     0.41859
  137        950     0.46006
  138        976     0.41241
  139        937     0.33523
  140        933     0.35337
  141        876     0.29109
  142        869     0.28120
  143        922     0.30163
  144        848     0.23749
  145        844     0.24866
  146        852     0.23645
  147        844     0.23676
  148        852     0.21711
  149        843     0.19487
  150        780     0.20228
  151        903     0.21658
  152        829     0.18594
  153        829     0.16866
  154        804     0.18352
  155        790     0.17389
  156        799     0.16795
  157        769     0.15456
  158        786     0.15637
  159        787     0.13937
  160        726     0.13685
  161        734     0.12979
  162        718     0.13385
  163        701     0.11718
  164        646     0.12628
  165        710     0.11552
  166        705     0.13425
  167        667     0.09585
  168        651     0.09847
  169        719     0.11180
  170        659     0.10011
  171        729     0.10790
  172        664     0.10682
  173        701     0.11203
  174        659     0.10692
  175        626     0.09581
  176        681     0.09590
  177        689     0.08744
  178        658     0.09315
  179        613     0.09543
  180        627     0.07942
  181        594     0.07727
  182        615     0.08296
  183        580     0.07799
  184        613     0.07522
  185        614     0.07887
  186        601     0.07345
  187        611     0.08466
  188        596     0.07392
  189        556     0.07874
  190        585     0.06591
  191        535     0.07019
  192        570     0.07414
  193        577     0.08281
  194        550     0.05858
  195        580     0.08440
  196        546     0.07390
  197        541     0.05898
  198        534     0.06188
  199        543     0.05548
  200        538     0.07088
  201        553     0.06043
  202        549     0.09717
  203        540     0.06235
  204        544     0.06338
  205        569     0.06467
  206        501     0.05976
  207        550     0.06807
  208        501     0.06548
  209        545     0.05816
  210        521     0.07203
  211        529     0.05113
  212        498     0.06953
  213        487     0.05178
  214        523     0.04731
  215        531     0.05789
  216        490     0.05681
  217        488     0.06105
  218        477     0.05655
  219        488     0.05128
  220        488     0.04977
  221        507     0.05705
  222        513     0.06182
  223        494     0.04876
  224        517     0.05310
  225        517     0.05649
  226        501     0.05645
  227        490     0.05584
  228        468     0.05045
  229        449     0.04698
  230        517     0.06319
  231        508     0.05874
  232        465     0.04627
  233        445     0.05504
  234        475     0.05101
  235        490     0.06270
  236        474     0.05300
  237        461     0.04675
  238        461     0.05380
  239        429     0.05191
  240        475     0.04760
  241        449     0.05291
  242        443     0.04892
  243        467     0.04912
  244        440     0.04505
  245        457     0.04974
  246        439     0.04899
  247        423     0.04747
  248        482     0.04880
  249        424     0.04789
  250        417     0.04482
  251        425     0.04179
  252        407     0.05039
  253        421     0.05061
  254        458     0.03857
  255        398     0.04175
  256        420     0.03453
  257        406     0.04775
  258        419     0.04225
  259        416     0.03991
  260        386     0.04204
  261        426     0.03906
  262        412     0.04508
  263        435     0.04501
  264        395     0.04047
  265        412     0.03940
  266        394     0.03878
  267        395     0.04513
  268        417     0.03754
  269        416     0.04746
  270        435     0.04919
  271        396     0.03360
  272        409     0.03937
  273        403     0.04392
  274        377     0.04081
  275        405     0.03941
  276        356     0.03796
  277        399     0.03603
  278        412     0.04445
  279        391     0.04211
  280        379     0.03458
  281        387     0.03805
  282        400     0.03831
  283        385     0.05114
  284        389     0.04280
  285        372     0.03751
  286        434     0.04450
  287        379     0.04318
  288        364     0.03553
  289        366     0.04006
  290        365     0.03469
  291        364     0.04042
  292        381     0.03692
  293        339     0.03881
  294        385     0.03602
  295        357     0.03886
  296        388     0.03535
  297        348     0.03205
  298        378     0.03317
  299        383     0.03424
  300        358     0.04084
  301        398     0.03893
  302        356     0.03851
  303        363     0.03304
  304        343     0.03291
  305        337     0.03312
  306        339     0.02904
  307        318     0.03521
  308        339     0.03129
  309        401     0.03258
  310        340     0.04004
  311        354     0.03770
  312        327     0.03414
  313        358     0.03541
  314        340     0.03042
  315        361     0.03429
  316        319     0.03045
  317        308     0.02771
  318        354     0.03680
  319        357     0.03272
  320        339     0.03620
  321        333     0.03926
  322        358     0.03637
  323        314     0.03325
  324        334     0.03037
  325        357     0.02786
  326        340     0.03091
  327        335     0.03208
  328        315     0.03506
  329        315     0.03407
  330        350     0.03607
  331        330     0.03093
  332        350     0.03989
  333        293     0.03111
  334        361     0.03803
  335        299     0.02918
  336        337     0.03763
  337        316     0.03639
  338        336     0.04344
  339        348     0.03182
  340        341     0.04001
  341        361     0.03822
  342        345     0.03670
  343        354     0.03301
  344        337     0.03818
  345        339     0.03047
  346        322     0.03669
  347        336     0.03397
  348        327     0.03428
  349        354     0.04101
  350        327     0.02586
  351        330     0.03319
  352        314     0.03433
  353        341     0.02852
  354        341     0.03083
  355        303     0.02918
  356        336     0.02920
  357        301     0.03252
  358        306     0.03320
  359        310     0.02986
  360        310     0.03011
  361        284     0.02719
  362        315     0.02583
  363        328     0.03871
  364        282     0.03153
  365        297     0.03464
  366        270     0.02692
  367        252     0.02574
  368        291     0.02627
  369        257     0.02946
  370        270     0.02681
  371        220     0.02685
  372        198     0.02422
  373        203     0.02941
  374        203     0.03246
  375        200     0.02194
  376        190     0.02817
  377        141     0.01960
  378        160     0.02439
  379        127     0.02257
  380        123     0.01912
  381        103     0.01473
  382         89     0.01828
  383         84     0.02107
  384         83     0.01724
  385         78     0.01852
  386         79     0.01861
  387         66     0.01485
  388         79     0.01890
  389         82     0.02451
  390         71     0.01847
  391         70     0.01682
  392         65     0.01842
  393         50     0.01704
  394         52     0.01322
  395         48     0.01266
  396         53     0.01444
  397         58     0.01374
  398         50     0.02002
  399         44     0.01770
  400         49     0.01799
  401         36     0.01279
  402         55     0.01929
  403         41     0.02144
  404         46     0.01221
  405         32     0.01226
  406         31     0.01100
  407         37     0.01589
  408         29     0.01081
  409         34     0.01909
  410         38     0.01503
  411         42     0.01535
  412         35     0.01518
  413         29     0.01035
  414         26     0.01004
  415         26     0.01381
  416         37     0.01744
  417         26     0.01458
  418         27     0.01151
  419         24     0.01009
  420         21     0.01271
  421         20     0.00911
  422         26     0.01495
  423         23     0.01699
  424         22     0.01168
  425         22     0.00957
  426         30     0.01073
  427         22     0.00945
  428         16     0.00982
  429         21     0.01273
  430         21     0.00947
  431         16     0.00852
  432         22     0.01019
  433         21     0.01184
  434         16     0.00885
  435         23     0.00970
  436         17     0.00864
  437         17     0.01434
  438         23     0.01452
  439         20     0.01445
  440         22     0.00939
  441         23     0.01579
  442         20     0.01464
  443         13     0.00775
  444         27     0.00977
  445         23     0.01011
  446         16     0.00859
  447         15     0.00847
  448         18     0.01323
  449         13     0.01490
  450         20     0.00958
  451         17     0.01107
  452         15     0.01070
  453         21     0.00888
  454         10     0.00767
  455         15     0.01544
  456         20     0.01070
  457         18     0.00878
  458         18     0.01199
  459         11     0.01069
  460         19     0.01579
  461         12     0.01103
  462         14     0.00838
  463         14     0.01080
  464          9     0.00776
  465         10     0.00748
  466          9     0.00715
  467          8     0.00753
  468         18     0.00925
  469         11     0.00769
  470         10     0.01245
  471         15     0.01001
  472         10     0.01083
  473         11     0.01136
  474         15     0.01160
  475         12     0.00934
  476         10     0.01348
  477         11     0.01303
  478         13     0.00973
  479          5     0.00982
  480         13     0.00780
  481         10     0.00789
  482          9     0.00760
  483          9     0.01203
  484         16     0.01228
  485         10     0.01129
  486          9     0.01163
  487         10     0.01162
  488          8     0.00778
  489         15     0.01313
  490         14     0.01350
  491         12     0.00821
  492          9     0.01021
  493         10     0.01063
  494          5     0.00625
  495         12     0.01040
  496          8     0.00741
  497          8     0.00839
  498          9     0.00757
  499          8     0.00706
  500          9     0.00847
  501          6     0.01098
  502          6     0.00957
  503          5     0.00924
  504          7     0.00701
  505          8     0.00787
  506          8     0.00746
  507         13     0.01084
  508          4     0.00610
  509         15     0.00843
  510         16     0.00888
  511         13     0.00819
  512          8     0.00732
  513         13     0.00812
  514          9     0.00852
  515          4     0.00679
  516          6     0.01076
  517          7     0.00731
  518          1     0.00582
  519          6     0.00728
  520          7     0.00963
  521          3     0.00621
  522          9     0.00860
  523          6     0.00651
  524          6     0.00667
  525          7     0.00720
  526          6     0.01162
  527          6     0.00652
  528          4     0.00962
  529          9     0.00699
  530          5     0.00644
  531          6     0.00662
  532          6     0.01009
  533          5     0.00699
  534          6     0.01110
  535          4     0.00652
  536          7     0.00702
  537          8     0.00761
  538          6     0.01116
  539          3     0.00641
  540          9     0.01376
  541         15     0.00854
  542         10     0.00801
  543          7     0.00686
  544          5     0.00698
  545          5     0.00641
  546          5     0.00676
  548          6     0.00967
  549          5     0.00680
  550         15     0.02877
  551          3     0.00767
  552          2     0.01020
  553          7     0.01307
  554          3     0.00764
  555          2     0.00947
  556          6     0.00690
  557          3     0.00942
  558          4     0.00652
  559          4     0.01099
  560          4     0.00605
  561          7     0.01154
  562          2     0.00617
  563          2     0.00603
  564          4     0.00667
  565          3     0.00549
  566          4     0.00604
  567          7     0.01498
  568          1     0.00590
  569          6     0.00702
  570          5     0.00627
  571          1     0.00569
  572          3     0.00567
  573          3     0.00574
  574          6     0.00673
  575          5     0.00669
  576          1     0.00562
  577          5     0.00643
  578          6     0.01347
  579          2     0.00581
  580          4     0.00658
  581          3     0.00569
  582          3     0.00610
  583          2     0.00575
  584          5     0.00693
  585          2     0.00562
  586          2     0.00554
  587          4     0.00775
  588          5     0.01116
  589          1     0.00558
  590          7     0.00712
  591          3     0.00574
  592          2     0.00603
  593          2     0.00574
  594          3     0.00551
  595          1     0.00536
  596          2     0.00558
  597          1     0.00551
  598          3     0.00575
  599          1     0.00556
  600          4     0.00570
  601          4     0.00642
  602          2     0.00578
  603          4     0.00982
  604          2     0.00911
  605          3     0.01048
  606          3     0.00617
  607          2     0.00557
  608          3     0.00569
  609          2     0.00724
  610          1     0.00582
  611          2     0.00570
  612          2     0.00556
  613          2     0.00598
  614          3     0.00568
  615          1     0.00533
  617          2     0.00526
  618          5     0.01029
  620          4     0.00628
  621          1     0.00559
  623          2     0.00538
  624          2     0.00544
  625          2     0.00580
  626          1     0.00568
  627          3     0.00640
  628          1     0.00595
  629          2     0.00606
  632          1     0.00576
  633          1     0.00590
  636          1     0.00568
  637          1     0.00908
  640          1     0.00593
  641          2     0.00594
  643          1     0.00581
  644          2     0.00569
  647          3     0.00581
  650          2     0.00548
  651          1     0.00587
  656          1     0.00564
  657          2     0.00582
  658          1     0.00563
  660          1     0.00616
  662          1     0.00575
  663          1     0.00548
  664          2     0.00545
  665          1     0.03091
  666          1     0.00607
  667          2     0.00624
  670          2     0.00602
  674          3     0.00581
  677          2     0.00615
  678          2     0.00579
  679          1     0.00612
  681          1     0.00595
  682          1     0.01055
  683          2     0.00619
  685          1     0.00592
  686          1     0.00596
  688          1     0.00626
  689          1     0.00598
  694          1     0.00586
  696          1     0.00592
  698          1     0.00573
  699          2     0.00598
  702          1     0.00585
  704          1     0.01124
  709          1     0.00592
  710          1     0.00614
  716          1     0.00600
  722          1     0.00562
  724          1     0.00575
  726          1     0.00603
  730          1     0.00534
  732          1     0.00546
  735          2     0.00542
  736          1     0.00998
  737          1     0.00594
  740          1     0.00585
  746          1     0.00635
  752          1     0.00585
  758          2     0.00606
  759          1     0.00611
  763          1     0.01053
  768          1     0.00575
  771          1     0.00597
  784          1     0.00593
  790          1     0.00587
  794          1     0.00551
  796          1     0.00535
  803          1     0.00551
  806          1     0.00575
  810          1     0.00619
  835          2     0.00628
  901          1     0.00602
  921          1     0.00605
  966          1     0.00503
took 594 iterations
Trial Time:          0.06087
Average Time:        0.06095
Exiting @ tick 2204737793000 because exiting with last active thread context
