
---------- Begin Simulation Statistics ----------
final_tick                               967408240000                       # Number of ticks from beginning of simulation (restored from checkpoints and never reset)
host_inst_rate                                  84166                       # Simulator instruction rate (inst/s)
host_mem_usage                                 739328                       # Number of bytes of host memory used
host_op_rate                                    84441                       # Simulator op (including micro ops) rate (op/s)
host_seconds                                 13181.55                       # Real time elapsed on the host
host_tick_rate                               73391108                       # Simulator tick rate (ticks/s)
sim_freq                                 1000000000000                       # Frequency of simulated ticks
sim_insts                                  1109440424                       # Number of instructions simulated
sim_ops                                    1113067003                       # Number of ops (including micro ops) simulated
sim_seconds                                  0.967408                       # Number of seconds simulated
sim_ticks                                967408240000                       # Number of ticks simulated
system.cpu0.branchPred.BTBCorrect                   0                       # Number of correct BTB predictions (this stat may not work properly.
system.cpu0.branchPred.BTBHitPct            87.723699                       # BTB Hit Percentage
system.cpu0.branchPred.BTBHits              139713880                       # Number of BTB hits
system.cpu0.branchPred.BTBLookups           159265833                       # Number of BTB lookups
system.cpu0.branchPred.RASInCorrect                 0                       # Number of incorrect RAS predictions.
system.cpu0.branchPred.condIncorrect         19797793                       # Number of conditional branches incorrect
system.cpu0.branchPred.condPredicted        213650389                       # Number of conditional branches predicted
system.cpu0.branchPred.indirectHits          18422895                       # Number of indirect target hits.
system.cpu0.branchPred.indirectLookups       18504867                       # Number of indirect predictor lookups.
system.cpu0.branchPred.indirectMisses           81972                       # Number of indirect misses.
system.cpu0.branchPred.lookups              273223227                       # Number of BP lookups
system.cpu0.branchPred.usedRAS                      0                       # Number of times the RAS was used to get a target.
system.cpu0.branchPredindirectMispredicted      1851201                       # Number of mispredicted indirect branches.
system.cpu0.commit.amos                        906057                       # Number of atomic instructions committed
system.cpu0.commit.branchMispredicts         11952661                       # The number of times a branch was mispredicted
system.cpu0.commit.branches                 252652266                       # Number of branches committed
system.cpu0.commit.bw_lim_events             31798293                       # number cycles where commit BW limit reached
system.cpu0.commit.commitNonSpecStalls        2725553                       # The number of times commit has been forced to stall to communicate backwards
system.cpu0.commit.commitSquashedInsts       58736990                       # The number of squashed insts skipped by commit
system.cpu0.commit.committedInsts          1016640987                       # Number of instructions committed
system.cpu0.commit.committedOps            1017549586                       # Number of ops (including micro ops) committed
system.cpu0.commit.committed_per_cycle::samples   1735718089                       # Number of insts commited each cycle
system.cpu0.commit.committed_per_cycle::mean     0.586241                       # Number of insts commited each cycle
system.cpu0.commit.committed_per_cycle::stdev     1.390575                       # Number of insts commited each cycle
system.cpu0.commit.committed_per_cycle::underflows            0      0.00%      0.00% # Number of insts commited each cycle
system.cpu0.commit.committed_per_cycle::0   1261299829     72.67%     72.67% # Number of insts commited each cycle
system.cpu0.commit.committed_per_cycle::1    276013212     15.90%     88.57% # Number of insts commited each cycle
system.cpu0.commit.committed_per_cycle::2     72479649      4.18%     92.75% # Number of insts commited each cycle
system.cpu0.commit.committed_per_cycle::3     60375778      3.48%     96.22% # Number of insts commited each cycle
system.cpu0.commit.committed_per_cycle::4     19838621      1.14%     97.37% # Number of insts commited each cycle
system.cpu0.commit.committed_per_cycle::5      6589757      0.38%     97.75% # Number of insts commited each cycle
system.cpu0.commit.committed_per_cycle::6      2500521      0.14%     97.89% # Number of insts commited each cycle
system.cpu0.commit.committed_per_cycle::7      4822429      0.28%     98.17% # Number of insts commited each cycle
system.cpu0.commit.committed_per_cycle::8     31798293      1.83%    100.00% # Number of insts commited each cycle
system.cpu0.commit.committed_per_cycle::overflows            0      0.00%    100.00% # Number of insts commited each cycle
system.cpu0.commit.committed_per_cycle::min_value            0                       # Number of insts commited each cycle
system.cpu0.commit.committed_per_cycle::max_value            8                       # Number of insts commited each cycle
system.cpu0.commit.committed_per_cycle::total   1735718089                       # Number of insts commited each cycle
system.cpu0.commit.fp_insts                        65                       # Number of committed floating point instructions.
system.cpu0.commit.function_calls            20546806                       # Number of function calls committed.
system.cpu0.commit.int_insts                983068368                       # Number of committed integer instructions.
system.cpu0.commit.loads                    316459109                       # Number of loads committed
system.cpu0.commit.membars                    1814510                       # Number of memory barriers committed
system.cpu0.commit.op_class_0::No_OpClass      1814519      0.18%      0.18% # Class of committed instruction
system.cpu0.commit.op_class_0::IntAlu       563660795     55.39%     55.57% # Class of committed instruction
system.cpu0.commit.op_class_0::IntMult        8030469      0.79%     56.36% # Class of committed instruction
system.cpu0.commit.op_class_0::IntDiv         1811041      0.18%     56.54% # Class of committed instruction
system.cpu0.commit.op_class_0::FloatAdd             0      0.00%     56.54% # Class of committed instruction
system.cpu0.commit.op_class_0::FloatCmp             6      0.00%     56.54% # Class of committed instruction
system.cpu0.commit.op_class_0::FloatCvt            16      0.00%     56.54% # Class of committed instruction
system.cpu0.commit.op_class_0::FloatMult            0      0.00%     56.54% # Class of committed instruction
system.cpu0.commit.op_class_0::FloatMultAcc            0      0.00%     56.54% # Class of committed instruction
system.cpu0.commit.op_class_0::FloatDiv             2      0.00%     56.54% # Class of committed instruction
system.cpu0.commit.op_class_0::FloatMisc            6      0.00%     56.54% # Class of committed instruction
system.cpu0.commit.op_class_0::FloatSqrt            0      0.00%     56.54% # Class of committed instruction
system.cpu0.commit.op_class_0::SimdAdd              0      0.00%     56.54% # Class of committed instruction
system.cpu0.commit.op_class_0::SimdAddAcc            0      0.00%     56.54% # Class of committed instruction
system.cpu0.commit.op_class_0::SimdAlu              0      0.00%     56.54% # Class of committed instruction
system.cpu0.commit.op_class_0::SimdCmp              0      0.00%     56.54% # Class of committed instruction
system.cpu0.commit.op_class_0::SimdCvt              0      0.00%     56.54% # Class of committed instruction
system.cpu0.commit.op_class_0::SimdMisc             0      0.00%     56.54% # Class of committed instruction
system.cpu0.commit.op_class_0::SimdMult             0      0.00%     56.54% # Class of committed instruction
system.cpu0.commit.op_class_0::SimdMultAcc            0      0.00%     56.54% # Class of committed instruction
system.cpu0.commit.op_class_0::SimdShift            0      0.00%     56.54% # Class of committed instruction
system.cpu0.commit.op_class_0::SimdShiftAcc            0      0.00%     56.54% # Class of committed instruction
system.cpu0.commit.op_class_0::SimdDiv              0      0.00%     56.54% # Class of committed instruction
system.cpu0.commit.op_class_0::SimdSqrt             0      0.00%     56.54% # Class of committed instruction
system.cpu0.commit.op_class_0::SimdFloatAdd            0      0.00%     56.54% # Class of committed instruction
system.cpu0.commit.op_class_0::SimdFloatAlu            0      0.00%     56.54% # Class of committed instruction
system.cpu0.commit.op_class_0::SimdFloatCmp            0      0.00%     56.54% # Class of committed instruction
system.cpu0.commit.op_class_0::SimdFloatCvt            0      0.00%     56.54% # Class of committed instruction
system.cpu0.commit.op_class_0::SimdFloatDiv            0      0.00%     56.54% # Class of committed instruction
system.cpu0.commit.op_class_0::SimdFloatMisc            0      0.00%     56.54% # Class of committed instruction
system.cpu0.commit.op_class_0::SimdFloatMult            0      0.00%     56.54% # Class of committed instruction
system.cpu0.commit.op_class_0::SimdFloatMultAcc            0      0.00%     56.54% # Class of committed instruction
system.cpu0.commit.op_class_0::SimdFloatSqrt            0      0.00%     56.54% # Class of committed instruction
system.cpu0.commit.op_class_0::SimdReduceAdd            0      0.00%     56.54% # Class of committed instruction
system.cpu0.commit.op_class_0::SimdReduceAlu            0      0.00%     56.54% # Class of committed instruction
system.cpu0.commit.op_class_0::SimdReduceCmp            0      0.00%     56.54% # Class of committed instruction
system.cpu0.commit.op_class_0::SimdFloatReduceAdd            0      0.00%     56.54% # Class of committed instruction
system.cpu0.commit.op_class_0::SimdFloatReduceCmp            0      0.00%     56.54% # Class of committed instruction
system.cpu0.commit.op_class_0::SimdAes              0      0.00%     56.54% # Class of committed instruction
system.cpu0.commit.op_class_0::SimdAesMix            0      0.00%     56.54% # Class of committed instruction
system.cpu0.commit.op_class_0::SimdSha1Hash            0      0.00%     56.54% # Class of committed instruction
system.cpu0.commit.op_class_0::SimdSha1Hash2            0      0.00%     56.54% # Class of committed instruction
system.cpu0.commit.op_class_0::SimdSha256Hash            0      0.00%     56.54% # Class of committed instruction
system.cpu0.commit.op_class_0::SimdSha256Hash2            0      0.00%     56.54% # Class of committed instruction
system.cpu0.commit.op_class_0::SimdShaSigma2            0      0.00%     56.54% # Class of committed instruction
system.cpu0.commit.op_class_0::SimdShaSigma3            0      0.00%     56.54% # Class of committed instruction
system.cpu0.commit.op_class_0::SimdPredAlu            0      0.00%     56.54% # Class of committed instruction
system.cpu0.commit.op_class_0::MemRead      317365154     31.19%     87.73% # Class of committed instruction
system.cpu0.commit.op_class_0::MemWrite     124867543     12.27%    100.00% # Class of committed instruction
system.cpu0.commit.op_class_0::FloatMemRead           12      0.00%    100.00% # Class of committed instruction
system.cpu0.commit.op_class_0::FloatMemWrite           23      0.00%    100.00% # Class of committed instruction
system.cpu0.commit.op_class_0::IprAccess            0      0.00%    100.00% # Class of committed instruction
system.cpu0.commit.op_class_0::InstPrefetch            0      0.00%    100.00% # Class of committed instruction
system.cpu0.commit.op_class_0::total       1017549586                       # Class of committed instruction
system.cpu0.commit.refs                     442232732                       # Number of memory references committed
system.cpu0.commit.swp_count                        0                       # Number of s/w prefetches committed
system.cpu0.commit.vec_insts                        0                       # Number of committed Vector instructions.
system.cpu0.committedInsts                 1016640987                       # Number of Instructions Simulated
system.cpu0.committedOps                   1017549586                       # Number of Ops (including micro ops) Simulated
system.cpu0.cpi                              1.885127                       # CPI: Cycles Per Instruction
system.cpu0.cpi_total                        1.885127                       # CPI: Total CPI of All Threads
system.cpu0.decode.BlockedCycles            196998176                       # Number of cycles decode is blocked
system.cpu0.decode.BranchMispred              7849120                       # Number of times decode detected a branch misprediction
system.cpu0.decode.BranchResolved           138597894                       # Number of times decode resolved a branch
system.cpu0.decode.DecodedInsts            1105409435                       # Number of instructions handled by decode
system.cpu0.decode.IdleCycles               745369389                       # Number of cycles decode is idle
system.cpu0.decode.RunCycles                793334262                       # Number of cycles decode is running
system.cpu0.decode.SquashCycles              11965095                       # Number of cycles decode is squashing
system.cpu0.decode.SquashedInsts             16306200                       # Number of squashed instructions handled by decode
system.cpu0.decode.UnblockCycles              4137478                       # Number of cycles decode is unblocking
system.cpu0.dtb.accesses                            0                       # DTB accesses
system.cpu0.dtb.hits                                0                       # DTB hits
system.cpu0.dtb.misses                              0                       # DTB misses
system.cpu0.dtb.read_accesses                       0                       # DTB read accesses
system.cpu0.dtb.read_hits                           0                       # DTB read hits
system.cpu0.dtb.read_misses                         0                       # DTB read misses
system.cpu0.dtb.write_accesses                      0                       # DTB write accesses
system.cpu0.dtb.write_hits                          0                       # DTB write hits
system.cpu0.dtb.write_misses                        0                       # DTB write misses
system.cpu0.fetch.Branches                  273223227                       # Number of branches that fetch encountered
system.cpu0.fetch.CacheLines                203467039                       # Number of cache lines fetched
system.cpu0.fetch.Cycles                   1002562486                       # Number of cycles fetch has run and was not squashing or blocked
system.cpu0.fetch.IcacheSquashes              4759486                       # Number of outstanding Icache misses that were squashed
system.cpu0.fetch.IcacheWaitRetryStallCycles          270                       # Number of stall cycles due to full MSHR
system.cpu0.fetch.Insts                    1132031991                       # Number of instructions fetch has processed
system.cpu0.fetch.MiscStallCycles                  39                       # Number of cycles fetch has spent waiting on interrupts, or bad addresses, or out of MSHRs
system.cpu0.fetch.PendingTrapStallCycles           70                       # Number of stall cycles due to pending traps
system.cpu0.fetch.SquashCycles               39620474                       # Number of cycles fetch has spent squashing
system.cpu0.fetch.branchRate                 0.142564                       # Number of branch fetches per cycle
system.cpu0.fetch.icacheStallCycles         729431298                       # Number of cycles fetch is stalled on an Icache miss
system.cpu0.fetch.predictedBranches         158136775                       # Number of branches that fetch has predicted taken
system.cpu0.fetch.rate                       0.590678                       # Number of inst fetches per cycle
system.cpu0.fetch.rateDist::samples        1751804400                       # Number of instructions fetched each cycle (Total)
system.cpu0.fetch.rateDist::mean             0.646729                       # Number of instructions fetched each cycle (Total)
system.cpu0.fetch.rateDist::stdev            0.878274                       # Number of instructions fetched each cycle (Total)
system.cpu0.fetch.rateDist::underflows              0      0.00%      0.00% # Number of instructions fetched each cycle (Total)
system.cpu0.fetch.rateDist::0               930897055     53.14%     53.14% # Number of instructions fetched each cycle (Total)
system.cpu0.fetch.rateDist::1               620591995     35.43%     88.57% # Number of instructions fetched each cycle (Total)
system.cpu0.fetch.rateDist::2               121111041      6.91%     95.48% # Number of instructions fetched each cycle (Total)
system.cpu0.fetch.rateDist::3                59623183      3.40%     98.88% # Number of instructions fetched each cycle (Total)
system.cpu0.fetch.rateDist::4                10879192      0.62%     99.50% # Number of instructions fetched each cycle (Total)
system.cpu0.fetch.rateDist::5                 6466352      0.37%     99.87% # Number of instructions fetched each cycle (Total)
system.cpu0.fetch.rateDist::6                  328777      0.02%     99.89% # Number of instructions fetched each cycle (Total)
system.cpu0.fetch.rateDist::7                 1816883      0.10%     99.99% # Number of instructions fetched each cycle (Total)
system.cpu0.fetch.rateDist::8                   89922      0.01%    100.00% # Number of instructions fetched each cycle (Total)
system.cpu0.fetch.rateDist::overflows               0      0.00%    100.00% # Number of instructions fetched each cycle (Total)
system.cpu0.fetch.rateDist::min_value               0                       # Number of instructions fetched each cycle (Total)
system.cpu0.fetch.rateDist::max_value               8                       # Number of instructions fetched each cycle (Total)
system.cpu0.fetch.rateDist::total          1751804400                       # Number of instructions fetched each cycle (Total)
system.cpu0.fp_regfile_reads                       56                       # number of floating regfile reads
system.cpu0.fp_regfile_writes                      33                       # number of floating regfile writes
system.cpu0.idleCycles                      164692692                       # Total number of cycles that the CPU has spent unscheduled due to idling
system.cpu0.iew.branchMispredicts            12029395                       # Number of branch mispredicts detected at execute
system.cpu0.iew.exec_branches               261135067                       # Number of branches executed
system.cpu0.iew.exec_nop                            0                       # number of nop insts executed
system.cpu0.iew.exec_rate                    0.556486                       # Inst execution rate
system.cpu0.iew.exec_refs                   472321043                       # number of memory reference insts executed
system.cpu0.iew.exec_stores                 129842189                       # Number of stores executed
system.cpu0.iew.exec_swp                            0                       # number of swp insts executed
system.cpu0.iew.iewBlockCycles              158426304                       # Number of cycles IEW is blocking
system.cpu0.iew.iewDispLoadInsts            342456358                       # Number of dispatched load instructions
system.cpu0.iew.iewDispNonSpecInsts            911638                       # Number of dispatched non-speculative instructions
system.cpu0.iew.iewDispSquashedInsts          7193360                       # Number of squashed instructions skipped by dispatch
system.cpu0.iew.iewDispStoreInsts           131883977                       # Number of dispatched store instructions
system.cpu0.iew.iewDispatchedInsts         1076276930                       # Number of instructions dispatched to IQ
system.cpu0.iew.iewExecLoadInsts            342478854                       # Number of load instructions executed
system.cpu0.iew.iewExecSquashedInsts          5124007                       # Number of squashed instructions skipped in execute
system.cpu0.iew.iewExecutedInsts           1066504456                       # Number of executed instructions
system.cpu0.iew.iewIQFullEvents               1011411                       # Number of times the IQ has become full, causing a stall
system.cpu0.iew.iewIdleCycles                       0                       # Number of cycles IEW is idle
system.cpu0.iew.iewLSQFullEvents              1890147                       # Number of times the LSQ has become full, causing a stall
system.cpu0.iew.iewSquashCycles              11965095                       # Number of cycles IEW is squashing
system.cpu0.iew.iewUnblockCycles              3974573                       # Number of cycles IEW is unblocking
system.cpu0.iew.lsq.thread0.blockedLoads            0                       # Number of blocked loads due to partial load-store forwarding
system.cpu0.iew.lsq.thread0.cacheBlocked       165644                       # Number of times an access to memory failed due to the cache being blocked
system.cpu0.iew.lsq.thread0.forwLoads        20596224                       # Number of loads that had data forwarded from stores
system.cpu0.iew.lsq.thread0.ignoredResponses        45402                       # Number of memory responses ignored because the instruction is squashed
system.cpu0.iew.lsq.thread0.invAddrLoads            0                       # Number of loads ignored due to an invalid address
system.cpu0.iew.lsq.thread0.invAddrSwpfs            0                       # Number of software prefetches ignored due to an invalid address
system.cpu0.iew.lsq.thread0.memOrderViolation        13793                       # Number of memory ordering violations
system.cpu0.iew.lsq.thread0.rescheduledLoads      4053029                       # Number of loads that were rescheduled
system.cpu0.iew.lsq.thread0.squashedLoads     25997249                       # Number of loads squashed
system.cpu0.iew.lsq.thread0.squashedStores      6110354                       # Number of stores squashed
system.cpu0.iew.memOrderViolationEvents         13793                       # Number of memory order violations
system.cpu0.iew.predictedNotTakenIncorrect      1106039                       # Number of branches that were predicted not taken incorrectly
system.cpu0.iew.predictedTakenIncorrect      10923356                       # Number of branches that were predicted taken incorrectly
system.cpu0.iew.wb_consumers                445938051                       # num instructions consuming a value
system.cpu0.iew.wb_count                   1057479422                       # cumulative count of insts written-back
system.cpu0.iew.wb_fanout                    0.849459                       # average fanout of values written-back
system.cpu0.iew.wb_producers                378806162                       # num instructions producing a value
system.cpu0.iew.wb_rate                      0.551777                       # insts written-back per cycle
system.cpu0.iew.wb_sent                    1057543970                       # cumulative count of insts sent to commit
system.cpu0.int_regfile_reads              1300057215                       # number of integer regfile reads
system.cpu0.int_regfile_writes              675177722                       # number of integer regfile writes
system.cpu0.ipc                              0.530468                       # IPC: Instructions Per Cycle
system.cpu0.ipc_total                        0.530468                       # IPC: Total IPC of All Threads
system.cpu0.iq.FU_type_0::No_OpClass          1816205      0.17%      0.17% # Type of FU issued
system.cpu0.iq.FU_type_0::IntAlu            584857655     54.58%     54.75% # Type of FU issued
system.cpu0.iq.FU_type_0::IntMult             8037067      0.75%     55.50% # Type of FU issued
system.cpu0.iq.FU_type_0::IntDiv              1811527      0.17%     55.67% # Type of FU issued
system.cpu0.iq.FU_type_0::FloatAdd                  0      0.00%     55.67% # Type of FU issued
system.cpu0.iq.FU_type_0::FloatCmp                  6      0.00%     55.67% # Type of FU issued
system.cpu0.iq.FU_type_0::FloatCvt                 16      0.00%     55.67% # Type of FU issued
system.cpu0.iq.FU_type_0::FloatMult                 0      0.00%     55.67% # Type of FU issued
system.cpu0.iq.FU_type_0::FloatMultAcc              0      0.00%     55.67% # Type of FU issued
system.cpu0.iq.FU_type_0::FloatDiv                  2      0.00%     55.67% # Type of FU issued
system.cpu0.iq.FU_type_0::FloatMisc                 6      0.00%     55.67% # Type of FU issued
system.cpu0.iq.FU_type_0::FloatSqrt                 0      0.00%     55.67% # Type of FU issued
system.cpu0.iq.FU_type_0::SimdAdd                   0      0.00%     55.67% # Type of FU issued
system.cpu0.iq.FU_type_0::SimdAddAcc                0      0.00%     55.67% # Type of FU issued
system.cpu0.iq.FU_type_0::SimdAlu                   0      0.00%     55.67% # Type of FU issued
system.cpu0.iq.FU_type_0::SimdCmp                   0      0.00%     55.67% # Type of FU issued
system.cpu0.iq.FU_type_0::SimdCvt                   0      0.00%     55.67% # Type of FU issued
system.cpu0.iq.FU_type_0::SimdMisc                  0      0.00%     55.67% # Type of FU issued
system.cpu0.iq.FU_type_0::SimdMult                  0      0.00%     55.67% # Type of FU issued
system.cpu0.iq.FU_type_0::SimdMultAcc               0      0.00%     55.67% # Type of FU issued
system.cpu0.iq.FU_type_0::SimdShift                 0      0.00%     55.67% # Type of FU issued
system.cpu0.iq.FU_type_0::SimdShiftAcc              0      0.00%     55.67% # Type of FU issued
system.cpu0.iq.FU_type_0::SimdDiv                   0      0.00%     55.67% # Type of FU issued
system.cpu0.iq.FU_type_0::SimdSqrt                  0      0.00%     55.67% # Type of FU issued
system.cpu0.iq.FU_type_0::SimdFloatAdd              0      0.00%     55.67% # Type of FU issued
system.cpu0.iq.FU_type_0::SimdFloatAlu              0      0.00%     55.67% # Type of FU issued
system.cpu0.iq.FU_type_0::SimdFloatCmp              0      0.00%     55.67% # Type of FU issued
system.cpu0.iq.FU_type_0::SimdFloatCvt              0      0.00%     55.67% # Type of FU issued
system.cpu0.iq.FU_type_0::SimdFloatDiv              0      0.00%     55.67% # Type of FU issued
system.cpu0.iq.FU_type_0::SimdFloatMisc             0      0.00%     55.67% # Type of FU issued
system.cpu0.iq.FU_type_0::SimdFloatMult             0      0.00%     55.67% # Type of FU issued
system.cpu0.iq.FU_type_0::SimdFloatMultAcc            0      0.00%     55.67% # Type of FU issued
system.cpu0.iq.FU_type_0::SimdFloatSqrt             0      0.00%     55.67% # Type of FU issued
system.cpu0.iq.FU_type_0::SimdReduceAdd             0      0.00%     55.67% # Type of FU issued
system.cpu0.iq.FU_type_0::SimdReduceAlu             0      0.00%     55.67% # Type of FU issued
system.cpu0.iq.FU_type_0::SimdReduceCmp             0      0.00%     55.67% # Type of FU issued
system.cpu0.iq.FU_type_0::SimdFloatReduceAdd            0      0.00%     55.67% # Type of FU issued
system.cpu0.iq.FU_type_0::SimdFloatReduceCmp            0      0.00%     55.67% # Type of FU issued
system.cpu0.iq.FU_type_0::SimdAes                   0      0.00%     55.67% # Type of FU issued
system.cpu0.iq.FU_type_0::SimdAesMix                0      0.00%     55.67% # Type of FU issued
system.cpu0.iq.FU_type_0::SimdSha1Hash              0      0.00%     55.67% # Type of FU issued
system.cpu0.iq.FU_type_0::SimdSha1Hash2             0      0.00%     55.67% # Type of FU issued
system.cpu0.iq.FU_type_0::SimdSha256Hash            0      0.00%     55.67% # Type of FU issued
system.cpu0.iq.FU_type_0::SimdSha256Hash2            0      0.00%     55.67% # Type of FU issued
system.cpu0.iq.FU_type_0::SimdShaSigma2             0      0.00%     55.67% # Type of FU issued
system.cpu0.iq.FU_type_0::SimdShaSigma3             0      0.00%     55.67% # Type of FU issued
system.cpu0.iq.FU_type_0::SimdPredAlu               0      0.00%     55.67% # Type of FU issued
system.cpu0.iq.FU_type_0::MemRead           344990212     32.19%     87.86% # Type of FU issued
system.cpu0.iq.FU_type_0::MemWrite          130115722     12.14%    100.00% # Type of FU issued
system.cpu0.iq.FU_type_0::FloatMemRead             23      0.00%    100.00% # Type of FU issued
system.cpu0.iq.FU_type_0::FloatMemWrite            23      0.00%    100.00% # Type of FU issued
system.cpu0.iq.FU_type_0::IprAccess                 0      0.00%    100.00% # Type of FU issued
system.cpu0.iq.FU_type_0::InstPrefetch              0      0.00%    100.00% # Type of FU issued
system.cpu0.iq.FU_type_0::total            1071628464                       # Type of FU issued
system.cpu0.iq.fp_alu_accesses                     79                       # Number of floating point alu accesses
system.cpu0.iq.fp_inst_queue_reads                155                       # Number of floating instruction queue reads
system.cpu0.iq.fp_inst_queue_wakeup_accesses           67                       # Number of floating instruction queue wakeup accesses
system.cpu0.iq.fp_inst_queue_writes                91                       # Number of floating instruction queue writes
system.cpu0.iq.fu_busy_cnt                    1365982                       # FU busy when requested
system.cpu0.iq.fu_busy_rate                  0.001275                       # FU busy rate (busy events/executed inst)
system.cpu0.iq.fu_full::No_OpClass                  0      0.00%      0.00% # attempts to use FU when none available
system.cpu0.iq.fu_full::IntAlu                 309311     22.64%     22.64% # attempts to use FU when none available
system.cpu0.iq.fu_full::IntMult                     0      0.00%     22.64% # attempts to use FU when none available
system.cpu0.iq.fu_full::IntDiv                      0      0.00%     22.64% # attempts to use FU when none available
system.cpu0.iq.fu_full::FloatAdd                    0      0.00%     22.64% # attempts to use FU when none available
system.cpu0.iq.fu_full::FloatCmp                    0      0.00%     22.64% # attempts to use FU when none available
system.cpu0.iq.fu_full::FloatCvt                    0      0.00%     22.64% # attempts to use FU when none available
system.cpu0.iq.fu_full::FloatMult                   0      0.00%     22.64% # attempts to use FU when none available
system.cpu0.iq.fu_full::FloatMultAcc                0      0.00%     22.64% # attempts to use FU when none available
system.cpu0.iq.fu_full::FloatDiv                    0      0.00%     22.64% # attempts to use FU when none available
system.cpu0.iq.fu_full::FloatMisc                   0      0.00%     22.64% # attempts to use FU when none available
system.cpu0.iq.fu_full::FloatSqrt                   0      0.00%     22.64% # attempts to use FU when none available
system.cpu0.iq.fu_full::SimdAdd                     0      0.00%     22.64% # attempts to use FU when none available
system.cpu0.iq.fu_full::SimdAddAcc                  0      0.00%     22.64% # attempts to use FU when none available
system.cpu0.iq.fu_full::SimdAlu                     0      0.00%     22.64% # attempts to use FU when none available
system.cpu0.iq.fu_full::SimdCmp                     0      0.00%     22.64% # attempts to use FU when none available
system.cpu0.iq.fu_full::SimdCvt                     0      0.00%     22.64% # attempts to use FU when none available
system.cpu0.iq.fu_full::SimdMisc                    0      0.00%     22.64% # attempts to use FU when none available
system.cpu0.iq.fu_full::SimdMult                    0      0.00%     22.64% # attempts to use FU when none available
system.cpu0.iq.fu_full::SimdMultAcc                 0      0.00%     22.64% # attempts to use FU when none available
system.cpu0.iq.fu_full::SimdShift                   0      0.00%     22.64% # attempts to use FU when none available
system.cpu0.iq.fu_full::SimdShiftAcc                0      0.00%     22.64% # attempts to use FU when none available
system.cpu0.iq.fu_full::SimdDiv                     0      0.00%     22.64% # attempts to use FU when none available
system.cpu0.iq.fu_full::SimdSqrt                    0      0.00%     22.64% # attempts to use FU when none available
system.cpu0.iq.fu_full::SimdFloatAdd                0      0.00%     22.64% # attempts to use FU when none available
system.cpu0.iq.fu_full::SimdFloatAlu                0      0.00%     22.64% # attempts to use FU when none available
system.cpu0.iq.fu_full::SimdFloatCmp                0      0.00%     22.64% # attempts to use FU when none available
system.cpu0.iq.fu_full::SimdFloatCvt                0      0.00%     22.64% # attempts to use FU when none available
system.cpu0.iq.fu_full::SimdFloatDiv                0      0.00%     22.64% # attempts to use FU when none available
system.cpu0.iq.fu_full::SimdFloatMisc               0      0.00%     22.64% # attempts to use FU when none available
system.cpu0.iq.fu_full::SimdFloatMult               0      0.00%     22.64% # attempts to use FU when none available
system.cpu0.iq.fu_full::SimdFloatMultAcc            0      0.00%     22.64% # attempts to use FU when none available
system.cpu0.iq.fu_full::SimdFloatSqrt               0      0.00%     22.64% # attempts to use FU when none available
system.cpu0.iq.fu_full::SimdReduceAdd               0      0.00%     22.64% # attempts to use FU when none available
system.cpu0.iq.fu_full::SimdReduceAlu               0      0.00%     22.64% # attempts to use FU when none available
system.cpu0.iq.fu_full::SimdReduceCmp               0      0.00%     22.64% # attempts to use FU when none available
system.cpu0.iq.fu_full::SimdFloatReduceAdd            0      0.00%     22.64% # attempts to use FU when none available
system.cpu0.iq.fu_full::SimdFloatReduceCmp            0      0.00%     22.64% # attempts to use FU when none available
system.cpu0.iq.fu_full::SimdAes                     0      0.00%     22.64% # attempts to use FU when none available
system.cpu0.iq.fu_full::SimdAesMix                  0      0.00%     22.64% # attempts to use FU when none available
system.cpu0.iq.fu_full::SimdSha1Hash                0      0.00%     22.64% # attempts to use FU when none available
system.cpu0.iq.fu_full::SimdSha1Hash2               0      0.00%     22.64% # attempts to use FU when none available
system.cpu0.iq.fu_full::SimdSha256Hash              0      0.00%     22.64% # attempts to use FU when none available
system.cpu0.iq.fu_full::SimdSha256Hash2             0      0.00%     22.64% # attempts to use FU when none available
system.cpu0.iq.fu_full::SimdShaSigma2               0      0.00%     22.64% # attempts to use FU when none available
system.cpu0.iq.fu_full::SimdShaSigma3               0      0.00%     22.64% # attempts to use FU when none available
system.cpu0.iq.fu_full::SimdPredAlu                 0      0.00%     22.64% # attempts to use FU when none available
system.cpu0.iq.fu_full::MemRead                914468     66.95%     89.59% # attempts to use FU when none available
system.cpu0.iq.fu_full::MemWrite               142200     10.41%    100.00% # attempts to use FU when none available
system.cpu0.iq.fu_full::FloatMemRead                0      0.00%    100.00% # attempts to use FU when none available
system.cpu0.iq.fu_full::FloatMemWrite               3      0.00%    100.00% # attempts to use FU when none available
system.cpu0.iq.fu_full::IprAccess                   0      0.00%    100.00% # attempts to use FU when none available
system.cpu0.iq.fu_full::InstPrefetch                0      0.00%    100.00% # attempts to use FU when none available
system.cpu0.iq.int_alu_accesses            1071178162                       # Number of integer alu accesses
system.cpu0.iq.int_inst_queue_reads        3896517791                       # Number of integer instruction queue reads
system.cpu0.iq.int_inst_queue_wakeup_accesses   1057479355                       # Number of integer instruction queue wakeup accesses
system.cpu0.iq.int_inst_queue_writes       1135016867                       # Number of integer instruction queue writes
system.cpu0.iq.iqInstsAdded                1073550554                       # Number of instructions added to the IQ (excludes non-spec)
system.cpu0.iq.iqInstsIssued               1071628464                       # Number of instructions issued
system.cpu0.iq.iqNonSpecInstsAdded            2726376                       # Number of non-speculative instructions added to the IQ
system.cpu0.iq.iqSquashedInstsExamined       58727340                       # Number of squashed instructions iterated over during squash; mainly for profiling
system.cpu0.iq.iqSquashedInstsIssued            90637                       # Number of squashed instructions issued
system.cpu0.iq.iqSquashedNonSpecRemoved           823                       # Number of squashed non-spec instructions that were removed
system.cpu0.iq.iqSquashedOperandsExamined     21744692                       # Number of squashed operands that are examined and possibly removed from graph
system.cpu0.iq.issued_per_cycle::samples   1751804400                       # Number of insts issued each cycle
system.cpu0.iq.issued_per_cycle::mean        0.611728                       # Number of insts issued each cycle
system.cpu0.iq.issued_per_cycle::stdev       0.807059                       # Number of insts issued each cycle
system.cpu0.iq.issued_per_cycle::underflows            0      0.00%      0.00% # Number of insts issued each cycle
system.cpu0.iq.issued_per_cycle::0          961912992     54.91%     54.91% # Number of insts issued each cycle
system.cpu0.iq.issued_per_cycle::1          566233629     32.32%     87.23% # Number of insts issued each cycle
system.cpu0.iq.issued_per_cycle::2          181060930     10.34%     97.57% # Number of insts issued each cycle
system.cpu0.iq.issued_per_cycle::3           32610761      1.86%     99.43% # Number of insts issued each cycle
system.cpu0.iq.issued_per_cycle::4            5688555      0.32%     99.75% # Number of insts issued each cycle
system.cpu0.iq.issued_per_cycle::5            3474321      0.20%     99.95% # Number of insts issued each cycle
system.cpu0.iq.issued_per_cycle::6             550646      0.03%     99.98% # Number of insts issued each cycle
system.cpu0.iq.issued_per_cycle::7             169537      0.01%     99.99% # Number of insts issued each cycle
system.cpu0.iq.issued_per_cycle::8             103029      0.01%    100.00% # Number of insts issued each cycle
system.cpu0.iq.issued_per_cycle::overflows            0      0.00%    100.00% # Number of insts issued each cycle
system.cpu0.iq.issued_per_cycle::min_value            0                       # Number of insts issued each cycle
system.cpu0.iq.issued_per_cycle::max_value            8                       # Number of insts issued each cycle
system.cpu0.iq.issued_per_cycle::total     1751804400                       # Number of insts issued each cycle
system.cpu0.iq.rate                          0.559160                       # Inst issue rate
system.cpu0.iq.vec_alu_accesses                     0                       # Number of vector alu accesses
system.cpu0.iq.vec_inst_queue_reads                 0                       # Number of vector instruction queue reads
system.cpu0.iq.vec_inst_queue_wakeup_accesses            0                       # Number of vector instruction queue wakeup accesses
system.cpu0.iq.vec_inst_queue_writes                0                       # Number of vector instruction queue writes
system.cpu0.itb.accesses                            0                       # DTB accesses
system.cpu0.itb.hits                                0                       # DTB hits
system.cpu0.itb.misses                              0                       # DTB misses
system.cpu0.itb.read_accesses                       0                       # DTB read accesses
system.cpu0.itb.read_hits                           0                       # DTB read hits
system.cpu0.itb.read_misses                         0                       # DTB read misses
system.cpu0.itb.write_accesses                      0                       # DTB write accesses
system.cpu0.itb.write_hits                          0                       # DTB write hits
system.cpu0.itb.write_misses                        0                       # DTB write misses
system.cpu0.memDep0.conflictingLoads         11286871                       # Number of conflicting loads.
system.cpu0.memDep0.conflictingStores         2185926                       # Number of conflicting stores.
system.cpu0.memDep0.insertedLoads           342456358                       # Number of loads inserted to the mem dependence unit.
system.cpu0.memDep0.insertedStores          131883977                       # Number of stores inserted to the mem dependence unit.
system.cpu0.misc_regfile_reads                   1709                       # number of misc regfile reads
system.cpu0.misc_regfile_writes                    30                       # number of misc regfile writes
system.cpu0.numCycles                      1916497092                       # number of cpu cycles simulated
system.cpu0.numWorkItemsCompleted                   0                       # number of work items this cpu completed
system.cpu0.numWorkItemsStarted                     0                       # number of work items this cpu started
system.cpu0.quiesceCycles                    18319915                       # Total number of cycles that CPU has spent quiesced or waiting for an interrupt
system.cpu0.rename.BlockCycles              168832150                       # Number of cycles rename is blocking
system.cpu0.rename.CommittedMaps            647580115                       # Number of HB maps that are committed
system.cpu0.rename.IQFullEvents               6785083                       # Number of times rename has blocked due to IQ full
system.cpu0.rename.IdleCycles               761493704                       # Number of cycles rename is idle
system.cpu0.rename.LQFullEvents               7742710                       # Number of times rename has blocked due to LQ full
system.cpu0.rename.ROBFullEvents                12831                       # Number of times rename has blocked due to ROB full
system.cpu0.rename.RenameLookups           1336599249                       # Number of register rename lookups that rename has made
system.cpu0.rename.RenamedInsts            1095415537                       # Number of instructions processed by rename
system.cpu0.rename.RenamedOperands          703490258                       # Number of destination operands rename has renamed
system.cpu0.rename.RunCycles                780769551                       # Number of cycles rename is running
system.cpu0.rename.SQFullEvents              14091219                       # Number of times rename has blocked due to SQ full
system.cpu0.rename.SquashCycles              11965095                       # Number of cycles rename is squashing
system.cpu0.rename.UnblockCycles             28427273                       # Number of cycles rename is unblocking
system.cpu0.rename.UndoneMaps                55910138                       # Number of HB maps that are undone due to squashing
system.cpu0.rename.fp_rename_lookups               56                       # Number of floating rename lookups
system.cpu0.rename.int_rename_lookups      1336599193                       # Number of integer rename lookups
system.cpu0.rename.serializeStallCycles        316627                       # count of cycles rename stalled for serializing inst
system.cpu0.rename.serializingInsts              5163                       # count of serializing insts renamed
system.cpu0.rename.skidInsts                 14268744                       # count of insts added to the skid buffer
system.cpu0.rename.tempSerializingInsts          5159                       # count of temporary serializing insts renamed
system.cpu0.rob.rob_reads                  2780184987                       # The number of ROB reads
system.cpu0.rob.rob_writes                 2168673346                       # The number of ROB writes
system.cpu0.timesIdled                       22565913                       # Number of times that the entire CPU went into an idle state and unscheduled itself
system.cpu0.workload.numSyscalls                 1665                       # Number of system calls
system.cpu1.branchPred.BTBCorrect                   0                       # Number of correct BTB predictions (this stat may not work properly.
system.cpu1.branchPred.BTBHitPct            87.391081                       # BTB Hit Percentage
system.cpu1.branchPred.BTBHits                8217947                       # Number of BTB hits
system.cpu1.branchPred.BTBLookups             9403645                       # Number of BTB lookups
system.cpu1.branchPred.RASInCorrect                 0                       # Number of incorrect RAS predictions.
system.cpu1.branchPred.condIncorrect          1917066                       # Number of conditional branches incorrect
system.cpu1.branchPred.condPredicted         14453256                       # Number of conditional branches predicted
system.cpu1.branchPred.indirectHits            229407                       # Number of indirect target hits.
system.cpu1.branchPred.indirectLookups         234831                       # Number of indirect predictor lookups.
system.cpu1.branchPred.indirectMisses            5424                       # Number of indirect misses.
system.cpu1.branchPred.lookups               15967722                       # Number of BP lookups
system.cpu1.branchPred.usedRAS                      0                       # Number of times the RAS was used to get a target.
system.cpu1.branchPredindirectMispredicted        13642                       # Number of mispredicted indirect branches.
system.cpu1.commit.amos                        905797                       # Number of atomic instructions committed
system.cpu1.commit.branchMispredicts          1313104                       # The number of times a branch was mispredicted
system.cpu1.commit.branches                   8767018                       # Number of branches committed
system.cpu1.commit.bw_lim_events               921698                       # number cycles where commit BW limit reached
system.cpu1.commit.commitNonSpecStalls        2718087                       # The number of times commit has been forced to stall to communicate backwards
system.cpu1.commit.commitSquashedInsts       20356928                       # The number of squashed insts skipped by commit
system.cpu1.commit.committedInsts            37203587                       # Number of instructions committed
system.cpu1.commit.committedOps              38109574                       # Number of ops (including micro ops) committed
system.cpu1.commit.committed_per_cycle::samples    213303581                       # Number of insts commited each cycle
system.cpu1.commit.committed_per_cycle::mean     0.178664                       # Number of insts commited each cycle
system.cpu1.commit.committed_per_cycle::stdev     0.830284                       # Number of insts commited each cycle
system.cpu1.commit.committed_per_cycle::underflows            0      0.00%      0.00% # Number of insts commited each cycle
system.cpu1.commit.committed_per_cycle::0    197576321     92.63%     92.63% # Number of insts commited each cycle
system.cpu1.commit.committed_per_cycle::1      7608496      3.57%     96.19% # Number of insts commited each cycle
system.cpu1.commit.committed_per_cycle::2      2610838      1.22%     97.42% # Number of insts commited each cycle
system.cpu1.commit.committed_per_cycle::3      2593185      1.22%     98.63% # Number of insts commited each cycle
system.cpu1.commit.committed_per_cycle::4       859721      0.40%     99.04% # Number of insts commited each cycle
system.cpu1.commit.committed_per_cycle::5       191553      0.09%     99.13% # Number of insts commited each cycle
system.cpu1.commit.committed_per_cycle::6       862769      0.40%     99.53% # Number of insts commited each cycle
system.cpu1.commit.committed_per_cycle::7        79000      0.04%     99.57% # Number of insts commited each cycle
system.cpu1.commit.committed_per_cycle::8       921698      0.43%    100.00% # Number of insts commited each cycle
system.cpu1.commit.committed_per_cycle::overflows            0      0.00%    100.00% # Number of insts commited each cycle
system.cpu1.commit.committed_per_cycle::min_value            0                       # Number of insts commited each cycle
system.cpu1.commit.committed_per_cycle::max_value            8                       # Number of insts commited each cycle
system.cpu1.commit.committed_per_cycle::total    213303581                       # Number of insts commited each cycle
system.cpu1.commit.fp_insts                        12                       # Number of committed floating point instructions.
system.cpu1.commit.function_calls              377864                       # Number of function calls committed.
system.cpu1.commit.int_insts                 35819324                       # Number of committed integer instructions.
system.cpu1.commit.loads                     10299587                       # Number of loads committed
system.cpu1.commit.membars                    1811671                       # Number of memory barriers committed
system.cpu1.commit.op_class_0::No_OpClass      1811671      4.75%      4.75% # Class of committed instruction
system.cpu1.commit.op_class_0::IntAlu        22365936     58.69%     63.44% # Class of committed instruction
system.cpu1.commit.op_class_0::IntMult             43      0.00%     63.44% # Class of committed instruction
system.cpu1.commit.op_class_0::IntDiv              86      0.00%     63.44% # Class of committed instruction
system.cpu1.commit.op_class_0::FloatAdd             0      0.00%     63.44% # Class of committed instruction
system.cpu1.commit.op_class_0::FloatCmp             0      0.00%     63.44% # Class of committed instruction
system.cpu1.commit.op_class_0::FloatCvt             0      0.00%     63.44% # Class of committed instruction
system.cpu1.commit.op_class_0::FloatMult            0      0.00%     63.44% # Class of committed instruction
system.cpu1.commit.op_class_0::FloatMultAcc            0      0.00%     63.44% # Class of committed instruction
system.cpu1.commit.op_class_0::FloatDiv             0      0.00%     63.44% # Class of committed instruction
system.cpu1.commit.op_class_0::FloatMisc            0      0.00%     63.44% # Class of committed instruction
system.cpu1.commit.op_class_0::FloatSqrt            0      0.00%     63.44% # Class of committed instruction
system.cpu1.commit.op_class_0::SimdAdd              0      0.00%     63.44% # Class of committed instruction
system.cpu1.commit.op_class_0::SimdAddAcc            0      0.00%     63.44% # Class of committed instruction
system.cpu1.commit.op_class_0::SimdAlu              0      0.00%     63.44% # Class of committed instruction
system.cpu1.commit.op_class_0::SimdCmp              0      0.00%     63.44% # Class of committed instruction
system.cpu1.commit.op_class_0::SimdCvt              0      0.00%     63.44% # Class of committed instruction
system.cpu1.commit.op_class_0::SimdMisc             0      0.00%     63.44% # Class of committed instruction
system.cpu1.commit.op_class_0::SimdMult             0      0.00%     63.44% # Class of committed instruction
system.cpu1.commit.op_class_0::SimdMultAcc            0      0.00%     63.44% # Class of committed instruction
system.cpu1.commit.op_class_0::SimdShift            0      0.00%     63.44% # Class of committed instruction
system.cpu1.commit.op_class_0::SimdShiftAcc            0      0.00%     63.44% # Class of committed instruction
system.cpu1.commit.op_class_0::SimdDiv              0      0.00%     63.44% # Class of committed instruction
system.cpu1.commit.op_class_0::SimdSqrt             0      0.00%     63.44% # Class of committed instruction
system.cpu1.commit.op_class_0::SimdFloatAdd            0      0.00%     63.44% # Class of committed instruction
system.cpu1.commit.op_class_0::SimdFloatAlu            0      0.00%     63.44% # Class of committed instruction
system.cpu1.commit.op_class_0::SimdFloatCmp            0      0.00%     63.44% # Class of committed instruction
system.cpu1.commit.op_class_0::SimdFloatCvt            0      0.00%     63.44% # Class of committed instruction
system.cpu1.commit.op_class_0::SimdFloatDiv            0      0.00%     63.44% # Class of committed instruction
system.cpu1.commit.op_class_0::SimdFloatMisc            0      0.00%     63.44% # Class of committed instruction
system.cpu1.commit.op_class_0::SimdFloatMult            0      0.00%     63.44% # Class of committed instruction
system.cpu1.commit.op_class_0::SimdFloatMultAcc            0      0.00%     63.44% # Class of committed instruction
system.cpu1.commit.op_class_0::SimdFloatSqrt            0      0.00%     63.44% # Class of committed instruction
system.cpu1.commit.op_class_0::SimdReduceAdd            0      0.00%     63.44% # Class of committed instruction
system.cpu1.commit.op_class_0::SimdReduceAlu            0      0.00%     63.44% # Class of committed instruction
system.cpu1.commit.op_class_0::SimdReduceCmp            0      0.00%     63.44% # Class of committed instruction
system.cpu1.commit.op_class_0::SimdFloatReduceAdd            0      0.00%     63.44% # Class of committed instruction
system.cpu1.commit.op_class_0::SimdFloatReduceCmp            0      0.00%     63.44% # Class of committed instruction
system.cpu1.commit.op_class_0::SimdAes              0      0.00%     63.44% # Class of committed instruction
system.cpu1.commit.op_class_0::SimdAesMix            0      0.00%     63.44% # Class of committed instruction
system.cpu1.commit.op_class_0::SimdSha1Hash            0      0.00%     63.44% # Class of committed instruction
system.cpu1.commit.op_class_0::SimdSha1Hash2            0      0.00%     63.44% # Class of committed instruction
system.cpu1.commit.op_class_0::SimdSha256Hash            0      0.00%     63.44% # Class of committed instruction
system.cpu1.commit.op_class_0::SimdSha256Hash2            0      0.00%     63.44% # Class of committed instruction
system.cpu1.commit.op_class_0::SimdShaSigma2            0      0.00%     63.44% # Class of committed instruction
system.cpu1.commit.op_class_0::SimdShaSigma3            0      0.00%     63.44% # Class of committed instruction
system.cpu1.commit.op_class_0::SimdPredAlu            0      0.00%     63.44% # Class of committed instruction
system.cpu1.commit.op_class_0::MemRead       11205384     29.40%     92.85% # Class of committed instruction
system.cpu1.commit.op_class_0::MemWrite       2726442      7.15%    100.00% # Class of committed instruction
system.cpu1.commit.op_class_0::FloatMemRead            0      0.00%    100.00% # Class of committed instruction
system.cpu1.commit.op_class_0::FloatMemWrite           12      0.00%    100.00% # Class of committed instruction
system.cpu1.commit.op_class_0::IprAccess            0      0.00%    100.00% # Class of committed instruction
system.cpu1.commit.op_class_0::InstPrefetch            0      0.00%    100.00% # Class of committed instruction
system.cpu1.commit.op_class_0::total         38109574                       # Class of committed instruction
system.cpu1.commit.refs                      13931838                       # Number of memory references committed
system.cpu1.commit.swp_count                        0                       # Number of s/w prefetches committed
system.cpu1.commit.vec_insts                        0                       # Number of committed Vector instructions.
system.cpu1.committedInsts                   37203587                       # Number of Instructions Simulated
system.cpu1.committedOps                     38109574                       # Number of Ops (including micro ops) Simulated
system.cpu1.cpi                              5.841253                       # CPI: Cycles Per Instruction
system.cpu1.cpi_total                        5.841253                       # CPI: Total CPI of All Threads
system.cpu1.decode.BlockedCycles            174653449                       # Number of cycles decode is blocked
system.cpu1.decode.BranchMispred               610212                       # Number of times decode detected a branch misprediction
system.cpu1.decode.BranchResolved             7453492                       # Number of times decode resolved a branch
system.cpu1.decode.DecodedInsts              65559315                       # Number of instructions handled by decode
system.cpu1.decode.IdleCycles                11371998                       # Number of cycles decode is idle
system.cpu1.decode.RunCycles                 26975860                       # Number of cycles decode is running
system.cpu1.decode.SquashCycles               1314293                       # Number of cycles decode is squashing
system.cpu1.decode.SquashedInsts              1445488                       # Number of squashed instructions handled by decode
system.cpu1.decode.UnblockCycles              2464488                       # Number of cycles decode is unblocking
system.cpu1.dtb.accesses                            0                       # DTB accesses
system.cpu1.dtb.hits                                0                       # DTB hits
system.cpu1.dtb.misses                              0                       # DTB misses
system.cpu1.dtb.read_accesses                       0                       # DTB read accesses
system.cpu1.dtb.read_hits                           0                       # DTB read hits
system.cpu1.dtb.read_misses                         0                       # DTB read misses
system.cpu1.dtb.write_accesses                      0                       # DTB write accesses
system.cpu1.dtb.write_hits                          0                       # DTB write hits
system.cpu1.dtb.write_misses                        0                       # DTB write misses
system.cpu1.fetch.Branches                   15967722                       # Number of branches that fetch encountered
system.cpu1.fetch.CacheLines                  8248012                       # Number of cache lines fetched
system.cpu1.fetch.Cycles                    204817247                       # Number of cycles fetch has run and was not squashing or blocked
system.cpu1.fetch.IcacheSquashes               344024                       # Number of outstanding Icache misses that were squashed
system.cpu1.fetch.IcacheWaitRetryStallCycles           28                       # Number of stall cycles due to full MSHR
system.cpu1.fetch.Insts                      75879868                       # Number of instructions fetch has processed
system.cpu1.fetch.MiscStallCycles                   2                       # Number of cycles fetch has spent waiting on interrupts, or bad addresses, or out of MSHRs
system.cpu1.fetch.SquashCycles                3836510                       # Number of cycles fetch has spent squashing
system.cpu1.fetch.branchRate                 0.073477                       # Number of branch fetches per cycle
system.cpu1.fetch.icacheStallCycles          10044556                       # Number of cycles fetch is stalled on an Icache miss
system.cpu1.fetch.predictedBranches           8447354                       # Number of branches that fetch has predicted taken
system.cpu1.fetch.rate                       0.349169                       # Number of inst fetches per cycle
system.cpu1.fetch.rateDist::samples         216780088                       # Number of instructions fetched each cycle (Total)
system.cpu1.fetch.rateDist::mean             0.363369                       # Number of instructions fetched each cycle (Total)
system.cpu1.fetch.rateDist::stdev            0.878172                       # Number of instructions fetched each cycle (Total)
system.cpu1.fetch.rateDist::underflows              0      0.00%      0.00% # Number of instructions fetched each cycle (Total)
system.cpu1.fetch.rateDist::0               172279160     79.47%     79.47% # Number of instructions fetched each cycle (Total)
system.cpu1.fetch.rateDist::1                24594257     11.35%     90.82% # Number of instructions fetched each cycle (Total)
system.cpu1.fetch.rateDist::2                11820069      5.45%     96.27% # Number of instructions fetched each cycle (Total)
system.cpu1.fetch.rateDist::3                 4760009      2.20%     98.47% # Number of instructions fetched each cycle (Total)
system.cpu1.fetch.rateDist::4                  975943      0.45%     98.92% # Number of instructions fetched each cycle (Total)
system.cpu1.fetch.rateDist::5                 1787130      0.82%     99.74% # Number of instructions fetched each cycle (Total)
system.cpu1.fetch.rateDist::6                  544836      0.25%     99.99% # Number of instructions fetched each cycle (Total)
system.cpu1.fetch.rateDist::7                    1139      0.00%     99.99% # Number of instructions fetched each cycle (Total)
system.cpu1.fetch.rateDist::8                   17545      0.01%    100.00% # Number of instructions fetched each cycle (Total)
system.cpu1.fetch.rateDist::overflows               0      0.00%    100.00% # Number of instructions fetched each cycle (Total)
system.cpu1.fetch.rateDist::min_value               0                       # Number of instructions fetched each cycle (Total)
system.cpu1.fetch.rateDist::max_value               8                       # Number of instructions fetched each cycle (Total)
system.cpu1.fetch.rateDist::total           216780088                       # Number of instructions fetched each cycle (Total)
system.cpu1.fp_regfile_reads                       12                       # number of floating regfile reads
system.cpu1.idleCycles                         535474                       # Total number of cycles that the CPU has spent unscheduled due to idling
system.cpu1.iew.branchMispredicts             1354695                       # Number of branch mispredicts detected at execute
system.cpu1.iew.exec_branches                10977703                       # Number of branches executed
system.cpu1.iew.exec_nop                            0                       # number of nop insts executed
system.cpu1.iew.exec_rate                    0.203587                       # Inst execution rate
system.cpu1.iew.exec_refs                    15066030                       # number of memory reference insts executed
system.cpu1.iew.exec_stores                   3883533                       # Number of stores executed
system.cpu1.iew.exec_swp                            0                       # number of swp insts executed
system.cpu1.iew.iewBlockCycles              149313938                       # Number of cycles IEW is blocking
system.cpu1.iew.iewDispLoadInsts             16349324                       # Number of dispatched load instructions
system.cpu1.iew.iewDispNonSpecInsts           1798323                       # Number of dispatched non-speculative instructions
system.cpu1.iew.iewDispSquashedInsts          1363408                       # Number of squashed instructions skipped by dispatch
system.cpu1.iew.iewDispStoreInsts             5890547                       # Number of dispatched store instructions
system.cpu1.iew.iewDispatchedInsts           58460063                       # Number of instructions dispatched to IQ
system.cpu1.iew.iewExecLoadInsts             11182497                       # Number of load instructions executed
system.cpu1.iew.iewExecSquashedInsts           845037                       # Number of squashed instructions skipped in execute
system.cpu1.iew.iewExecutedInsts             44242627                       # Number of executed instructions
system.cpu1.iew.iewIQFullEvents                981384                       # Number of times the IQ has become full, causing a stall
system.cpu1.iew.iewIdleCycles                       0                       # Number of cycles IEW is idle
system.cpu1.iew.iewLSQFullEvents               792738                       # Number of times the LSQ has become full, causing a stall
system.cpu1.iew.iewSquashCycles               1314293                       # Number of cycles IEW is squashing
system.cpu1.iew.iewUnblockCycles              2635006                       # Number of cycles IEW is unblocking
system.cpu1.iew.lsq.thread0.blockedLoads            0                       # Number of blocked loads due to partial load-store forwarding
system.cpu1.iew.lsq.thread0.cacheBlocked        29685                       # Number of times an access to memory failed due to the cache being blocked
system.cpu1.iew.lsq.thread0.forwLoads          297800                       # Number of loads that had data forwarded from stores
system.cpu1.iew.lsq.thread0.ignoredResponses         8162                       # Number of memory responses ignored because the instruction is squashed
system.cpu1.iew.lsq.thread0.invAddrLoads            0                       # Number of loads ignored due to an invalid address
system.cpu1.iew.lsq.thread0.invAddrSwpfs            0                       # Number of software prefetches ignored due to an invalid address
system.cpu1.iew.lsq.thread0.memOrderViolation         1661                       # Number of memory ordering violations
system.cpu1.iew.lsq.thread0.rescheduledLoads         4569                       # Number of loads that were rescheduled
system.cpu1.iew.lsq.thread0.squashedLoads      6049737                       # Number of loads squashed
system.cpu1.iew.lsq.thread0.squashedStores      2258296                       # Number of stores squashed
system.cpu1.iew.memOrderViolationEvents          1661                       # Number of memory order violations
system.cpu1.iew.predictedNotTakenIncorrect       242511                       # Number of branches that were predicted not taken incorrectly
system.cpu1.iew.predictedTakenIncorrect       1112184                       # Number of branches that were predicted taken incorrectly
system.cpu1.iew.wb_consumers                 24990271                       # num instructions consuming a value
system.cpu1.iew.wb_count                     43750553                       # cumulative count of insts written-back
system.cpu1.iew.wb_fanout                    0.803066                       # average fanout of values written-back
system.cpu1.iew.wb_producers                 20068838                       # num instructions producing a value
system.cpu1.iew.wb_rate                      0.201323                       # insts written-back per cycle
system.cpu1.iew.wb_sent                      43770085                       # cumulative count of insts sent to commit
system.cpu1.int_regfile_reads                56560920                       # number of integer regfile reads
system.cpu1.int_regfile_writes               28214590                       # number of integer regfile writes
system.cpu1.ipc                              0.171196                       # IPC: Instructions Per Cycle
system.cpu1.ipc_total                        0.171196                       # IPC: Total IPC of All Threads
system.cpu1.iq.FU_type_0::No_OpClass          1811882      4.02%      4.02% # Type of FU issued
system.cpu1.iq.FU_type_0::IntAlu             28008077     62.12%     66.14% # Type of FU issued
system.cpu1.iq.FU_type_0::IntMult                  47      0.00%     66.14% # Type of FU issued
system.cpu1.iq.FU_type_0::IntDiv                   86      0.00%     66.14% # Type of FU issued
system.cpu1.iq.FU_type_0::FloatAdd                  0      0.00%     66.14% # Type of FU issued
system.cpu1.iq.FU_type_0::FloatCmp                  0      0.00%     66.14% # Type of FU issued
system.cpu1.iq.FU_type_0::FloatCvt                  0      0.00%     66.14% # Type of FU issued
system.cpu1.iq.FU_type_0::FloatMult                 0      0.00%     66.14% # Type of FU issued
system.cpu1.iq.FU_type_0::FloatMultAcc              0      0.00%     66.14% # Type of FU issued
system.cpu1.iq.FU_type_0::FloatDiv                  0      0.00%     66.14% # Type of FU issued
system.cpu1.iq.FU_type_0::FloatMisc                 0      0.00%     66.14% # Type of FU issued
system.cpu1.iq.FU_type_0::FloatSqrt                 0      0.00%     66.14% # Type of FU issued
system.cpu1.iq.FU_type_0::SimdAdd                   0      0.00%     66.14% # Type of FU issued
system.cpu1.iq.FU_type_0::SimdAddAcc                0      0.00%     66.14% # Type of FU issued
system.cpu1.iq.FU_type_0::SimdAlu                   0      0.00%     66.14% # Type of FU issued
system.cpu1.iq.FU_type_0::SimdCmp                   0      0.00%     66.14% # Type of FU issued
system.cpu1.iq.FU_type_0::SimdCvt                   0      0.00%     66.14% # Type of FU issued
system.cpu1.iq.FU_type_0::SimdMisc                  0      0.00%     66.14% # Type of FU issued
system.cpu1.iq.FU_type_0::SimdMult                  0      0.00%     66.14% # Type of FU issued
system.cpu1.iq.FU_type_0::SimdMultAcc               0      0.00%     66.14% # Type of FU issued
system.cpu1.iq.FU_type_0::SimdShift                 0      0.00%     66.14% # Type of FU issued
system.cpu1.iq.FU_type_0::SimdShiftAcc              0      0.00%     66.14% # Type of FU issued
system.cpu1.iq.FU_type_0::SimdDiv                   0      0.00%     66.14% # Type of FU issued
system.cpu1.iq.FU_type_0::SimdSqrt                  0      0.00%     66.14% # Type of FU issued
system.cpu1.iq.FU_type_0::SimdFloatAdd              0      0.00%     66.14% # Type of FU issued
system.cpu1.iq.FU_type_0::SimdFloatAlu              0      0.00%     66.14% # Type of FU issued
system.cpu1.iq.FU_type_0::SimdFloatCmp              0      0.00%     66.14% # Type of FU issued
system.cpu1.iq.FU_type_0::SimdFloatCvt              0      0.00%     66.14% # Type of FU issued
system.cpu1.iq.FU_type_0::SimdFloatDiv              0      0.00%     66.14% # Type of FU issued
system.cpu1.iq.FU_type_0::SimdFloatMisc             0      0.00%     66.14% # Type of FU issued
system.cpu1.iq.FU_type_0::SimdFloatMult             0      0.00%     66.14% # Type of FU issued
system.cpu1.iq.FU_type_0::SimdFloatMultAcc            0      0.00%     66.14% # Type of FU issued
system.cpu1.iq.FU_type_0::SimdFloatSqrt             0      0.00%     66.14% # Type of FU issued
system.cpu1.iq.FU_type_0::SimdReduceAdd             0      0.00%     66.14% # Type of FU issued
system.cpu1.iq.FU_type_0::SimdReduceAlu             0      0.00%     66.14% # Type of FU issued
system.cpu1.iq.FU_type_0::SimdReduceCmp             0      0.00%     66.14% # Type of FU issued
system.cpu1.iq.FU_type_0::SimdFloatReduceAdd            0      0.00%     66.14% # Type of FU issued
system.cpu1.iq.FU_type_0::SimdFloatReduceCmp            0      0.00%     66.14% # Type of FU issued
system.cpu1.iq.FU_type_0::SimdAes                   0      0.00%     66.14% # Type of FU issued
system.cpu1.iq.FU_type_0::SimdAesMix                0      0.00%     66.14% # Type of FU issued
system.cpu1.iq.FU_type_0::SimdSha1Hash              0      0.00%     66.14% # Type of FU issued
system.cpu1.iq.FU_type_0::SimdSha1Hash2             0      0.00%     66.14% # Type of FU issued
system.cpu1.iq.FU_type_0::SimdSha256Hash            0      0.00%     66.14% # Type of FU issued
system.cpu1.iq.FU_type_0::SimdSha256Hash2            0      0.00%     66.14% # Type of FU issued
system.cpu1.iq.FU_type_0::SimdShaSigma2             0      0.00%     66.14% # Type of FU issued
system.cpu1.iq.FU_type_0::SimdShaSigma3             0      0.00%     66.14% # Type of FU issued
system.cpu1.iq.FU_type_0::SimdPredAlu               0      0.00%     66.14% # Type of FU issued
system.cpu1.iq.FU_type_0::MemRead            12247357     27.16%     93.30% # Type of FU issued
system.cpu1.iq.FU_type_0::MemWrite            3020203      6.70%    100.00% # Type of FU issued
system.cpu1.iq.FU_type_0::FloatMemRead              0      0.00%    100.00% # Type of FU issued
system.cpu1.iq.FU_type_0::FloatMemWrite            12      0.00%    100.00% # Type of FU issued
system.cpu1.iq.FU_type_0::IprAccess                 0      0.00%    100.00% # Type of FU issued
system.cpu1.iq.FU_type_0::InstPrefetch              0      0.00%    100.00% # Type of FU issued
system.cpu1.iq.FU_type_0::total              45087664                       # Type of FU issued
system.cpu1.iq.fp_alu_accesses                     15                       # Number of floating point alu accesses
system.cpu1.iq.fp_inst_queue_reads                 27                       # Number of floating instruction queue reads
system.cpu1.iq.fp_inst_queue_wakeup_accesses           12                       # Number of floating instruction queue wakeup accesses
system.cpu1.iq.fp_inst_queue_writes                12                       # Number of floating instruction queue writes
system.cpu1.iq.fu_busy_cnt                    1062756                       # FU busy when requested
system.cpu1.iq.fu_busy_rate                  0.023571                       # FU busy rate (busy events/executed inst)
system.cpu1.iq.fu_full::No_OpClass                  0      0.00%      0.00% # attempts to use FU when none available
system.cpu1.iq.fu_full::IntAlu                 216801     20.40%     20.40% # attempts to use FU when none available
system.cpu1.iq.fu_full::IntMult                     0      0.00%     20.40% # attempts to use FU when none available
system.cpu1.iq.fu_full::IntDiv                      0      0.00%     20.40% # attempts to use FU when none available
system.cpu1.iq.fu_full::FloatAdd                    0      0.00%     20.40% # attempts to use FU when none available
system.cpu1.iq.fu_full::FloatCmp                    0      0.00%     20.40% # attempts to use FU when none available
system.cpu1.iq.fu_full::FloatCvt                    0      0.00%     20.40% # attempts to use FU when none available
system.cpu1.iq.fu_full::FloatMult                   0      0.00%     20.40% # attempts to use FU when none available
system.cpu1.iq.fu_full::FloatMultAcc                0      0.00%     20.40% # attempts to use FU when none available
system.cpu1.iq.fu_full::FloatDiv                    0      0.00%     20.40% # attempts to use FU when none available
system.cpu1.iq.fu_full::FloatMisc                   0      0.00%     20.40% # attempts to use FU when none available
system.cpu1.iq.fu_full::FloatSqrt                   0      0.00%     20.40% # attempts to use FU when none available
system.cpu1.iq.fu_full::SimdAdd                     0      0.00%     20.40% # attempts to use FU when none available
system.cpu1.iq.fu_full::SimdAddAcc                  0      0.00%     20.40% # attempts to use FU when none available
system.cpu1.iq.fu_full::SimdAlu                     0      0.00%     20.40% # attempts to use FU when none available
system.cpu1.iq.fu_full::SimdCmp                     0      0.00%     20.40% # attempts to use FU when none available
system.cpu1.iq.fu_full::SimdCvt                     0      0.00%     20.40% # attempts to use FU when none available
system.cpu1.iq.fu_full::SimdMisc                    0      0.00%     20.40% # attempts to use FU when none available
system.cpu1.iq.fu_full::SimdMult                    0      0.00%     20.40% # attempts to use FU when none available
system.cpu1.iq.fu_full::SimdMultAcc                 0      0.00%     20.40% # attempts to use FU when none available
system.cpu1.iq.fu_full::SimdShift                   0      0.00%     20.40% # attempts to use FU when none available
system.cpu1.iq.fu_full::SimdShiftAcc                0      0.00%     20.40% # attempts to use FU when none available
system.cpu1.iq.fu_full::SimdDiv                     0      0.00%     20.40% # attempts to use FU when none available
system.cpu1.iq.fu_full::SimdSqrt                    0      0.00%     20.40% # attempts to use FU when none available
system.cpu1.iq.fu_full::SimdFloatAdd                0      0.00%     20.40% # attempts to use FU when none available
system.cpu1.iq.fu_full::SimdFloatAlu                0      0.00%     20.40% # attempts to use FU when none available
system.cpu1.iq.fu_full::SimdFloatCmp                0      0.00%     20.40% # attempts to use FU when none available
system.cpu1.iq.fu_full::SimdFloatCvt                0      0.00%     20.40% # attempts to use FU when none available
system.cpu1.iq.fu_full::SimdFloatDiv                0      0.00%     20.40% # attempts to use FU when none available
system.cpu1.iq.fu_full::SimdFloatMisc               0      0.00%     20.40% # attempts to use FU when none available
system.cpu1.iq.fu_full::SimdFloatMult               0      0.00%     20.40% # attempts to use FU when none available
system.cpu1.iq.fu_full::SimdFloatMultAcc            0      0.00%     20.40% # attempts to use FU when none available
system.cpu1.iq.fu_full::SimdFloatSqrt               0      0.00%     20.40% # attempts to use FU when none available
system.cpu1.iq.fu_full::SimdReduceAdd               0      0.00%     20.40% # attempts to use FU when none available
system.cpu1.iq.fu_full::SimdReduceAlu               0      0.00%     20.40% # attempts to use FU when none available
system.cpu1.iq.fu_full::SimdReduceCmp               0      0.00%     20.40% # attempts to use FU when none available
system.cpu1.iq.fu_full::SimdFloatReduceAdd            0      0.00%     20.40% # attempts to use FU when none available
system.cpu1.iq.fu_full::SimdFloatReduceCmp            0      0.00%     20.40% # attempts to use FU when none available
system.cpu1.iq.fu_full::SimdAes                     0      0.00%     20.40% # attempts to use FU when none available
system.cpu1.iq.fu_full::SimdAesMix                  0      0.00%     20.40% # attempts to use FU when none available
system.cpu1.iq.fu_full::SimdSha1Hash                0      0.00%     20.40% # attempts to use FU when none available
system.cpu1.iq.fu_full::SimdSha1Hash2               0      0.00%     20.40% # attempts to use FU when none available
system.cpu1.iq.fu_full::SimdSha256Hash              0      0.00%     20.40% # attempts to use FU when none available
system.cpu1.iq.fu_full::SimdSha256Hash2             0      0.00%     20.40% # attempts to use FU when none available
system.cpu1.iq.fu_full::SimdShaSigma2               0      0.00%     20.40% # attempts to use FU when none available
system.cpu1.iq.fu_full::SimdShaSigma3               0      0.00%     20.40% # attempts to use FU when none available
system.cpu1.iq.fu_full::SimdPredAlu                 0      0.00%     20.40% # attempts to use FU when none available
system.cpu1.iq.fu_full::MemRead                748030     70.39%     90.79% # attempts to use FU when none available
[...]
system.cpu1.dcache.WriteReq_mshr_miss_latency::.cpu1.data  64464990217                       # number of WriteReq MSHR miss cycles
system.cpu1.dcache.WriteReq_mshr_miss_latency::total  64464990217                       # number of WriteReq MSHR miss cycles
system.cpu1.dcache.WriteReq_mshr_miss_rate::.cpu1.data     0.057106                       # mshr miss rate for WriteReq accesses
system.cpu1.dcache.WriteReq_mshr_miss_rate::total     0.057106                       # mshr miss rate for WriteReq accesses
system.cpu1.dcache.WriteReq_avg_mshr_miss_latency::.cpu1.data 87136.518022                       # average WriteReq mshr miss latency
system.cpu1.dcache.WriteReq_avg_mshr_miss_latency::total 87136.518022                       # average WriteReq mshr miss latency
system.cpu1.dcache.LoadLockedReq_hits::.cpu1.data         7576                       # number of LoadLockedReq hits
system.cpu1.dcache.LoadLockedReq_hits::total         7576                       # number of LoadLockedReq hits
system.cpu1.dcache.LoadLockedReq_misses::.cpu1.data         1620                       # number of LoadLockedReq misses
system.cpu1.dcache.LoadLockedReq_misses::total         1620                       # number of LoadLockedReq misses
system.cpu1.dcache.LoadLockedReq_miss_latency::.cpu1.data     32493500                       # number of LoadLockedReq miss cycles
system.cpu1.dcache.LoadLockedReq_miss_latency::total     32493500                       # number of LoadLockedReq miss cycles
system.cpu1.dcache.LoadLockedReq_accesses::.cpu1.data         9196                       # number of LoadLockedReq accesses(hits+misses)
system.cpu1.dcache.LoadLockedReq_accesses::total         9196                       # number of LoadLockedReq accesses(hits+misses)
system.cpu1.dcache.LoadLockedReq_miss_rate::.cpu1.data     0.176164                       # miss rate for LoadLockedReq accesses
system.cpu1.dcache.LoadLockedReq_miss_rate::total     0.176164                       # miss rate for LoadLockedReq accesses
system.cpu1.dcache.LoadLockedReq_avg_miss_latency::.cpu1.data 20057.716049                       # average LoadLockedReq miss latency
system.cpu1.dcache.LoadLockedReq_avg_miss_latency::total 20057.716049                       # average LoadLockedReq miss latency
system.cpu1.dcache.LoadLockedReq_mshr_hits::.cpu1.data          312                       # number of LoadLockedReq MSHR hits
system.cpu1.dcache.LoadLockedReq_mshr_hits::total          312                       # number of LoadLockedReq MSHR hits
system.cpu1.dcache.LoadLockedReq_mshr_misses::.cpu1.data         1308                       # number of LoadLockedReq MSHR misses
system.cpu1.dcache.LoadLockedReq_mshr_misses::total         1308                       # number of LoadLockedReq MSHR misses
system.cpu1.dcache.LoadLockedReq_mshr_miss_latency::.cpu1.data     22452000                       # number of LoadLockedReq MSHR miss cycles
system.cpu1.dcache.LoadLockedReq_mshr_miss_latency::total     22452000                       # number of LoadLockedReq MSHR miss cycles
system.cpu1.dcache.LoadLockedReq_mshr_miss_rate::.cpu1.data     0.142236                       # mshr miss rate for LoadLockedReq accesses
system.cpu1.dcache.LoadLockedReq_mshr_miss_rate::total     0.142236                       # mshr miss rate for LoadLockedReq accesses
system.cpu1.dcache.LoadLockedReq_avg_mshr_miss_latency::.cpu1.data 17165.137615                       # average LoadLockedReq mshr miss latency
system.cpu1.dcache.LoadLockedReq_avg_mshr_miss_latency::total 17165.137615                       # average LoadLockedReq mshr miss latency
system.cpu1.dcache.StoreCondReq_hits::.cpu1.data         3684                       # number of StoreCondReq hits
system.cpu1.dcache.StoreCondReq_hits::total         3684                       # number of StoreCondReq hits
system.cpu1.dcache.StoreCondReq_misses::.cpu1.data         3389                       # number of StoreCondReq misses
system.cpu1.dcache.StoreCondReq_misses::total         3389                       # number of StoreCondReq misses
system.cpu1.dcache.StoreCondReq_miss_latency::.cpu1.data     31324500                       # number of StoreCondReq miss cycles
system.cpu1.dcache.StoreCondReq_miss_latency::total     31324500                       # number of StoreCondReq miss cycles
system.cpu1.dcache.StoreCondReq_accesses::.cpu1.data         7073                       # number of StoreCondReq accesses(hits+misses)
system.cpu1.dcache.StoreCondReq_accesses::total         7073                       # number of StoreCondReq accesses(hits+misses)
system.cpu1.dcache.StoreCondReq_miss_rate::.cpu1.data     0.479146                       # miss rate for StoreCondReq accesses
system.cpu1.dcache.StoreCondReq_miss_rate::total     0.479146                       # miss rate for StoreCondReq accesses
system.cpu1.dcache.StoreCondReq_avg_miss_latency::.cpu1.data  9242.992033                       # average StoreCondReq miss latency
system.cpu1.dcache.StoreCondReq_avg_miss_latency::total  9242.992033                       # average StoreCondReq miss latency
system.cpu1.dcache.StoreCondReq_mshr_misses::.cpu1.data         3310                       # number of StoreCondReq MSHR misses
system.cpu1.dcache.StoreCondReq_mshr_misses::total         3310                       # number of StoreCondReq MSHR misses
system.cpu1.dcache.StoreCondReq_mshr_miss_latency::.cpu1.data     28209500                       # number of StoreCondReq MSHR miss cycles
system.cpu1.dcache.StoreCondReq_mshr_miss_latency::total     28209500                       # number of StoreCondReq MSHR miss cycles
system.cpu1.dcache.StoreCondReq_mshr_miss_rate::.cpu1.data     0.467977                       # mshr miss rate for StoreCondReq accesses
system.cpu1.dcache.StoreCondReq_mshr_miss_rate::total     0.467977                       # mshr miss rate for StoreCondReq accesses
system.cpu1.dcache.StoreCondReq_avg_mshr_miss_latency::.cpu1.data  8522.507553                       # average StoreCondReq mshr miss latency
system.cpu1.dcache.StoreCondReq_avg_mshr_miss_latency::total  8522.507553                       # average StoreCondReq mshr miss latency
system.cpu1.dcache.StoreCondFailReq_miss_latency::.cpu1.data      2772500                       # number of StoreCondFailReq miss cycles
system.cpu1.dcache.StoreCondFailReq_miss_latency::total      2772500                       # number of StoreCondFailReq miss cycles
system.cpu1.dcache.StoreCondFailReq_avg_miss_latency::.cpu1.data          inf                       # average StoreCondFailReq miss latency
system.cpu1.dcache.StoreCondFailReq_avg_miss_latency::total          inf                       # average StoreCondFailReq miss latency
system.cpu1.dcache.StoreCondFailReq_mshr_miss_latency::.cpu1.data      2577500                       # number of StoreCondFailReq MSHR miss cycles
system.cpu1.dcache.StoreCondFailReq_mshr_miss_latency::total      2577500                       # number of StoreCondFailReq MSHR miss cycles
system.cpu1.dcache.StoreCondFailReq_avg_mshr_miss_latency::.cpu1.data          inf                       # average StoreCondFailReq mshr miss latency
system.cpu1.dcache.StoreCondFailReq_avg_mshr_miss_latency::total          inf                       # average StoreCondFailReq mshr miss latency
system.cpu1.dcache.SwapReq_hits::.cpu1.data         2328                       # number of SwapReq hits
system.cpu1.dcache.SwapReq_hits::total           2328                       # number of SwapReq hits
system.cpu1.dcache.SwapReq_misses::.cpu1.data       100377                       # number of SwapReq misses
system.cpu1.dcache.SwapReq_misses::total       100377                       # number of SwapReq misses
system.cpu1.dcache.SwapReq_miss_latency::.cpu1.data   2710481500                       # number of SwapReq miss cycles
system.cpu1.dcache.SwapReq_miss_latency::total   2710481500                       # number of SwapReq miss cycles
system.cpu1.dcache.SwapReq_accesses::.cpu1.data       102705                       # number of SwapReq accesses(hits+misses)
system.cpu1.dcache.SwapReq_accesses::total       102705                       # number of SwapReq accesses(hits+misses)
system.cpu1.dcache.SwapReq_miss_rate::.cpu1.data     0.977333                       # miss rate for SwapReq accesses
system.cpu1.dcache.SwapReq_miss_rate::total     0.977333                       # miss rate for SwapReq accesses
system.cpu1.dcache.SwapReq_avg_miss_latency::.cpu1.data 27003.013639                       # average SwapReq miss latency
system.cpu1.dcache.SwapReq_avg_miss_latency::total 27003.013639                       # average SwapReq miss latency
system.cpu1.dcache.SwapReq_mshr_hits::.cpu1.data            1                       # number of SwapReq MSHR hits
system.cpu1.dcache.SwapReq_mshr_hits::total            1                       # number of SwapReq MSHR hits
system.cpu1.dcache.SwapReq_mshr_misses::.cpu1.data       100376                       # number of SwapReq MSHR misses
system.cpu1.dcache.SwapReq_mshr_misses::total       100376                       # number of SwapReq MSHR misses
system.cpu1.dcache.SwapReq_mshr_miss_latency::.cpu1.data   2610104500                       # number of SwapReq MSHR miss cycles
system.cpu1.dcache.SwapReq_mshr_miss_latency::total   2610104500                       # number of SwapReq MSHR miss cycles
system.cpu1.dcache.SwapReq_mshr_miss_rate::.cpu1.data     0.977323                       # mshr miss rate for SwapReq accesses
system.cpu1.dcache.SwapReq_mshr_miss_rate::total     0.977323                       # mshr miss rate for SwapReq accesses
system.cpu1.dcache.SwapReq_avg_mshr_miss_latency::.cpu1.data 26003.272695                       # average SwapReq mshr miss latency
system.cpu1.dcache.SwapReq_avg_mshr_miss_latency::total 26003.272695                       # average SwapReq mshr miss latency
system.cpu1.dcache.tags.pwrStateResidencyTicks::UNDEFINED 1853024504500                       # Cumulative time (in ticks) in various power states
system.cpu1.dcache.tags.tagsinuse           31.953429                       # Cycle average of tags in use
system.cpu1.dcache.tags.total_refs          150636889                       # Total number of references to valid blocks.
system.cpu1.dcache.tags.sampled_refs         63293845                       # Sample count of references to valid blocks.
system.cpu1.dcache.tags.avg_refs             2.379961                       # Average number of references to valid blocks.
system.cpu1.dcache.tags.warmup_cycle                0                       # Cycle when the warmup percentage was hit.
system.cpu1.dcache.tags.occ_blocks::.cpu1.data    31.953429                       # Average occupied blocks per requestor
system.cpu1.dcache.tags.occ_percent::.cpu1.data     0.998545                       # Average percentage of cache occupancy
system.cpu1.dcache.tags.occ_percent::total     0.998545                       # Average percentage of cache occupancy
system.cpu1.dcache.tags.occ_task_id_blocks::1024           28                       # Occupied blocks per task id
system.cpu1.dcache.tags.age_task_id_blocks_1024::1           28                       # Occupied blocks per task id
system.cpu1.dcache.tags.occ_task_id_percent::1024     0.875000                       # Percentage of cache occupancy per task id
system.cpu1.dcache.tags.tag_accesses        467868141                       # Number of tag accesses
system.cpu1.dcache.tags.data_accesses       467868141                       # Number of data accesses
system.cpu_clk_domain.clock                       500                       # Clock period in ticks
system.tol2bus.pwrStateResidencyTicks::UNDEFINED 1853024504500                       # Cumulative time (in ticks) in various power states
system.tol2bus.trans_dist::ReadResp         250130780                       # Transaction distribution
system.tol2bus.trans_dist::ReadRespWithInvalidate           24                       # Transaction distribution
system.tol2bus.trans_dist::WritebackDirty     12117938                       # Transaction distribution
system.tol2bus.trans_dist::WritebackClean    246314442                       # Transaction distribution
system.tol2bus.trans_dist::CleanEvict       435401815                       # Transaction distribution
system.tol2bus.trans_dist::UpgradeReq          147500                       # Transaction distribution
system.tol2bus.trans_dist::SCUpgradeReq         11451                       # Transaction distribution
system.tol2bus.trans_dist::UpgradeResp         158951                       # Transaction distribution
system.tol2bus.trans_dist::SCUpgradeFailReq          943                       # Transaction distribution
system.tol2bus.trans_dist::UpgradeFailResp          943                       # Transaction distribution
system.tol2bus.trans_dist::ReadExReq          3256015                       # Transaction distribution
system.tol2bus.trans_dist::ReadExResp         3256015                       # Transaction distribution
system.tol2bus.trans_dist::ReadCleanReq        254726                       # Transaction distribution
system.tol2bus.trans_dist::ReadSharedReq    249876079                       # Transaction distribution
system.tol2bus.pkt_count_system.cpu0.icache.mem_side::system.l2.cpu_side       457795                       # Packet count per connected master and slave (bytes)
system.tol2bus.pkt_count_system.cpu0.dcache.mem_side::system.l2.cpu_side    189549393                       # Packet count per connected master and slave (bytes)
system.tol2bus.pkt_count_system.cpu1.icache.mem_side::system.l2.cpu_side       103083                       # Packet count per connected master and slave (bytes)
system.tol2bus.pkt_count_system.cpu1.dcache.mem_side::system.l2.cpu_side    189767690                       # Packet count per connected master and slave (bytes)
system.tol2bus.pkt_count_system.cpu2.icache.mem_side::system.l2.cpu_side       100356                       # Packet count per connected master and slave (bytes)
system.tol2bus.pkt_count_system.cpu2.dcache.mem_side::system.l2.cpu_side    189864424                       # Packet count per connected master and slave (bytes)
system.tol2bus.pkt_count_system.cpu3.icache.mem_side::system.l2.cpu_side       102942                       # Packet count per connected master and slave (bytes)
system.tol2bus.pkt_count_system.cpu3.dcache.mem_side::system.l2.cpu_side    189755676                       # Packet count per connected master and slave (bytes)
system.tol2bus.pkt_count::total             759701359                       # Packet count per connected master and slave (bytes)
system.tol2bus.pkt_size_system.cpu0.icache.mem_side::system.l2.cpu_side     19532544                       # Cumulative packet size per connected master and slave (bytes)
system.tol2bus.pkt_size_system.cpu0.dcache.mem_side::system.l2.cpu_side   8081746368                       # Cumulative packet size per connected master and slave (bytes)
system.tol2bus.pkt_size_system.cpu1.icache.mem_side::system.l2.cpu_side      4398208                       # Cumulative packet size per connected master and slave (bytes)
system.tol2bus.pkt_size_system.cpu1.dcache.mem_side::system.l2.cpu_side   8091188160                       # Cumulative packet size per connected master and slave (bytes)
system.tol2bus.pkt_size_system.cpu2.icache.mem_side::system.l2.cpu_side      4281856                       # Cumulative packet size per connected master and slave (bytes)
system.tol2bus.pkt_size_system.cpu2.dcache.mem_side::system.l2.cpu_side   8095475712                       # Cumulative packet size per connected master and slave (bytes)
system.tol2bus.pkt_size_system.cpu3.icache.mem_side::system.l2.cpu_side      4392192                       # Cumulative packet size per connected master and slave (bytes)
system.tol2bus.pkt_size_system.cpu3.dcache.mem_side::system.l2.cpu_side   8090635840                       # Cumulative packet size per connected master and slave (bytes)
system.tol2bus.pkt_size::total            32391650880                       # Cumulative packet size per connected master and slave (bytes)
system.tol2bus.snoops                       441226263                       # Total snoops (count)
system.tol2bus.snoopTraffic                 364838208                       # Total snoop traffic (bytes)
system.tol2bus.snoop_fanout::samples        694323879                       # Request fanout histogram
system.tol2bus.snoop_fanout::mean            0.381780                       # Request fanout histogram
system.tol2bus.snoop_fanout::stdev           0.546297                       # Request fanout histogram
system.tol2bus.snoop_fanout::underflows             0      0.00%      0.00% # Request fanout histogram
system.tol2bus.snoop_fanout::0              448379626     64.58%     64.58% # Request fanout histogram
system.tol2bus.snoop_fanout::1              229184327     33.01%     97.59% # Request fanout histogram
system.tol2bus.snoop_fanout::2               14544217      2.09%     99.68% # Request fanout histogram
system.tol2bus.snoop_fanout::3                2056649      0.30%     99.98% # Request fanout histogram
system.tol2bus.snoop_fanout::4                 159060      0.02%    100.00% # Request fanout histogram
system.tol2bus.snoop_fanout::5                      0      0.00%    100.00% # Request fanout histogram
system.tol2bus.snoop_fanout::6                      0      0.00%    100.00% # Request fanout histogram
system.tol2bus.snoop_fanout::7                      0      0.00%    100.00% # Request fanout histogram
system.tol2bus.snoop_fanout::8                      0      0.00%    100.00% # Request fanout histogram
system.tol2bus.snoop_fanout::overflows              0      0.00%    100.00% # Request fanout histogram
system.tol2bus.snoop_fanout::min_value              0                       # Request fanout histogram
system.tol2bus.snoop_fanout::max_value              4                       # Request fanout histogram
system.tol2bus.snoop_fanout::total          694323879                       # Request fanout histogram
system.tol2bus.reqLayer0.occupancy       506366542992                       # Layer occupancy (ticks)
system.tol2bus.reqLayer0.utilization             27.3                       # Layer utilization (%)
system.tol2bus.respLayer5.occupancy       95301979837                       # Layer occupancy (ticks)
system.tol2bus.respLayer5.utilization             5.1                       # Layer utilization (%)
system.tol2bus.respLayer4.occupancy          52303375                       # Layer occupancy (ticks)
system.tol2bus.respLayer4.utilization             0.0                       # Layer utilization (%)
system.tol2bus.respLayer7.occupancy       95249856330                       # Layer occupancy (ticks)
system.tol2bus.respLayer7.utilization             5.1                       # Layer utilization (%)
system.tol2bus.respLayer6.occupancy          53753521                       # Layer occupancy (ticks)
system.tol2bus.respLayer6.utilization             0.0                       # Layer utilization (%)
system.tol2bus.respLayer1.occupancy       95146178297                       # Layer occupancy (ticks)
system.tol2bus.respLayer1.utilization             5.1                       # Layer utilization (%)
system.tol2bus.respLayer0.occupancy         229463196                       # Layer occupancy (ticks)
system.tol2bus.respLayer0.utilization             0.0                       # Layer utilization (%)
system.tol2bus.respLayer3.occupancy       95254841340                       # Layer occupancy (ticks)
system.tol2bus.respLayer3.utilization             5.1                       # Layer utilization (%)
system.tol2bus.respLayer2.occupancy          53445148                       # Layer occupancy (ticks)
system.tol2bus.respLayer2.utilization             0.0                       # Layer utilization (%)

---------- End Simulation Statistics   ----------
