
---------- Begin Simulation Statistics ----------
final_tick                               234430953000                       # Number of ticks from beginning of simulation (restored from checkpoints and never reset)
host_inst_rate                                  84616                       # Simulator instruction rate (inst/s)
host_mem_usage                                 738048                       # Number of bytes of host memory used
host_op_rate                                    84927                       # Simulator op (including micro ops) rate (op/s)
host_seconds                                  3372.40                       # Real time elapsed on the host
host_tick_rate                               69514667                       # Simulator tick rate (ticks/s)
sim_freq                                 1000000000000                       # Frequency of simulated ticks
sim_insts                                   285357881                       # Number of instructions simulated
sim_ops                                     286407286                       # Number of ops (including micro ops) simulated
sim_seconds                                  0.234431                       # Number of seconds simulated
sim_ticks                                234430953000                       # Number of ticks simulated
system.cpu0.branchPred.BTBCorrect                   0                       # Number of correct BTB predictions (this stat may not work properly.
system.cpu0.branchPred.BTBHitPct            85.731691                       # BTB Hit Percentage
system.cpu0.branchPred.BTBHits               57947432                       # Number of BTB hits
system.cpu0.branchPred.BTBLookups            67591612                       # Number of BTB lookups
system.cpu0.branchPred.RASInCorrect                 0                       # Number of incorrect RAS predictions.
system.cpu0.branchPred.condIncorrect         13126274                       # Number of conditional branches incorrect
system.cpu0.branchPred.condPredicted         63387499                       # Number of conditional branches predicted
system.cpu0.branchPred.indirectHits           4594514                       # Number of indirect target hits.
system.cpu0.branchPred.indirectLookups        4606039                       # Number of indirect predictor lookups.
system.cpu0.branchPred.indirectMisses           11525                       # Number of indirect misses.
system.cpu0.branchPred.lookups               78032653                       # Number of BP lookups
system.cpu0.branchPred.usedRAS                      0                       # Number of times the RAS was used to get a target.
system.cpu0.branchPredindirectMispredicted         6945                       # Number of mispredicted indirect branches.
system.cpu0.commit.amos                        262440                       # Number of atomic instructions committed
system.cpu0.commit.branchMispredicts          7073626                       # The number of times a branch was mispredicted
system.cpu0.commit.branches                  37539045                       # Number of branches committed
system.cpu0.commit.bw_lim_events              1137358                       # number cycles where commit BW limit reached
system.cpu0.commit.commitNonSpecStalls         787805                       # The number of times commit has been forced to stall to communicate backwards
system.cpu0.commit.commitSquashedInsts      129840360                       # The number of squashed insts skipped by commit
system.cpu0.commit.committedInsts           243852242                       # Number of instructions committed
system.cpu0.commit.committedOps             244114658                       # Number of ops (including micro ops) committed
system.cpu0.commit.committed_per_cycle::samples    448661774                       # Number of insts commited each cycle
system.cpu0.commit.committed_per_cycle::mean     0.544095                       # Number of insts commited each cycle
system.cpu0.commit.committed_per_cycle::stdev     1.019590                       # Number of insts commited each cycle
system.cpu0.commit.committed_per_cycle::underflows            0      0.00%      0.00% # Number of insts commited each cycle
system.cpu0.commit.committed_per_cycle::0    309666052     69.02%     69.02% # Number of insts commited each cycle
system.cpu0.commit.committed_per_cycle::1     73262402     16.33%     85.35% # Number of insts commited each cycle
system.cpu0.commit.committed_per_cycle::2     41919519      9.34%     94.69% # Number of insts commited each cycle
system.cpu0.commit.committed_per_cycle::3     17041766      3.80%     98.49% # Number of insts commited each cycle
system.cpu0.commit.committed_per_cycle::4      2662366      0.59%     99.08% # Number of insts commited each cycle
system.cpu0.commit.committed_per_cycle::5      2275692      0.51%     99.59% # Number of insts commited each cycle
system.cpu0.commit.committed_per_cycle::6       115201      0.03%     99.62% # Number of insts commited each cycle
system.cpu0.commit.committed_per_cycle::7       581418      0.13%     99.75% # Number of insts commited each cycle
system.cpu0.commit.committed_per_cycle::8      1137358      0.25%    100.00% # Number of insts commited each cycle
system.cpu0.commit.committed_per_cycle::overflows            0      0.00%    100.00% # Number of insts commited each cycle
system.cpu0.commit.committed_per_cycle::min_value            0                       # Number of insts commited each cycle
system.cpu0.commit.committed_per_cycle::max_value            8                       # Number of insts commited each cycle
system.cpu0.commit.committed_per_cycle::total    448661774                       # Number of insts commited each cycle
system.cpu0.commit.fp_insts                  26214481                       # Number of committed floating point instructions.
system.cpu0.commit.function_calls             7441097                       # Number of function calls committed.
system.cpu0.commit.int_insts                231983766                       # Number of committed integer instructions.
system.cpu0.commit.loads                     23475508                       # Number of loads committed
system.cpu0.commit.membars                     524887                       # Number of memory barriers committed
system.cpu0.commit.op_class_0::No_OpClass       524896      0.22%      0.22% # Class of committed instruction
system.cpu0.commit.op_class_0::IntAlu       184450032     75.56%     75.77% # Class of committed instruction
system.cpu0.commit.op_class_0::IntMult          18424      0.01%     75.78% # Class of committed instruction
system.cpu0.commit.op_class_0::IntDiv           32816      0.01%     75.79% # Class of committed instruction
system.cpu0.commit.op_class_0::FloatAdd       7340032      3.01%     78.80% # Class of committed instruction
system.cpu0.commit.op_class_0::FloatCmp      11010054      4.51%     83.31% # Class of committed instruction
system.cpu0.commit.op_class_0::FloatCvt       3932176      1.61%     84.92% # Class of committed instruction
system.cpu0.commit.op_class_0::FloatMult      3670016      1.50%     86.43% # Class of committed instruction
system.cpu0.commit.op_class_0::FloatMultAcc            0      0.00%     86.43% # Class of committed instruction
system.cpu0.commit.op_class_0::FloatDiv             2      0.00%     86.43% # Class of committed instruction
system.cpu0.commit.op_class_0::FloatMisc            6      0.00%     86.43% # Class of committed instruction
system.cpu0.commit.op_class_0::FloatSqrt            0      0.00%     86.43% # Class of committed instruction
system.cpu0.commit.op_class_0::SimdAdd              0      0.00%     86.43% # Class of committed instruction
system.cpu0.commit.op_class_0::SimdAddAcc            0      0.00%     86.43% # Class of committed instruction
system.cpu0.commit.op_class_0::SimdAlu              0      0.00%     86.43% # Class of committed instruction
system.cpu0.commit.op_class_0::SimdCmp              0      0.00%     86.43% # Class of committed instruction
system.cpu0.commit.op_class_0::SimdCvt              0      0.00%     86.43% # Class of committed instruction
system.cpu0.commit.op_class_0::SimdMisc             0      0.00%     86.43% # Class of committed instruction
system.cpu0.commit.op_class_0::SimdMult             0      0.00%     86.43% # Class of committed instruction
system.cpu0.commit.op_class_0::SimdMultAcc            0      0.00%     86.43% # Class of committed instruction
system.cpu0.commit.op_class_0::SimdShift            0      0.00%     86.43% # Class of committed instruction
system.cpu0.commit.op_class_0::SimdShiftAcc            0      0.00%     86.43% # Class of committed instruction
system.cpu0.commit.op_class_0::SimdDiv              0      0.00%     86.43% # Class of committed instruction
system.cpu0.commit.op_class_0::SimdSqrt             0      0.00%     86.43% # Class of committed instruction
system.cpu0.commit.op_class_0::SimdFloatAdd            0      0.00%     86.43% # Class of committed instruction
system.cpu0.commit.op_class_0::SimdFloatAlu            0      0.00%     86.43% # Class of committed instruction
system.cpu0.commit.op_class_0::SimdFloatCmp            0      0.00%     86.43% # Class of committed instruction
system.cpu0.commit.op_class_0::SimdFloatCvt            0      0.00%     86.43% # Class of committed instruction
system.cpu0.commit.op_class_0::SimdFloatDiv            0      0.00%     86.43% # Class of committed instruction
system.cpu0.commit.op_class_0::SimdFloatMisc            0      0.00%     86.43% # Class of committed instruction
system.cpu0.commit.op_class_0::SimdFloatMult            0      0.00%     86.43% # Class of committed instruction
system.cpu0.commit.op_class_0::SimdFloatMultAcc            0      0.00%     86.43% # Class of committed instruction
system.cpu0.commit.op_class_0::SimdFloatSqrt            0      0.00%     86.43% # Class of committed instruction
system.cpu0.commit.op_class_0::SimdReduceAdd            0      0.00%     86.43% # Class of committed instruction
system.cpu0.commit.op_class_0::SimdReduceAlu            0      0.00%     86.43% # Class of committed instruction
system.cpu0.commit.op_class_0::SimdReduceCmp            0      0.00%     86.43% # Class of committed instruction
system.cpu0.commit.op_class_0::SimdFloatReduceAdd            0      0.00%     86.43% # Class of committed instruction
system.cpu0.commit.op_class_0::SimdFloatReduceCmp            0      0.00%     86.43% # Class of committed instruction
system.cpu0.commit.op_class_0::SimdAes              0      0.00%     86.43% # Class of committed instruction
system.cpu0.commit.op_class_0::SimdAesMix            0      0.00%     86.43% # Class of committed instruction
system.cpu0.commit.op_class_0::SimdSha1Hash            0      0.00%     86.43% # Class of committed instruction
system.cpu0.commit.op_class_0::SimdSha1Hash2            0      0.00%     86.43% # Class of committed instruction
system.cpu0.commit.op_class_0::SimdSha256Hash            0      0.00%     86.43% # Class of committed instruction
system.cpu0.commit.op_class_0::SimdSha256Hash2            0      0.00%     86.43% # Class of committed instruction
system.cpu0.commit.op_class_0::SimdShaSigma2            0      0.00%     86.43% # Class of committed instruction
system.cpu0.commit.op_class_0::SimdShaSigma3            0      0.00%     86.43% # Class of committed instruction
system.cpu0.commit.op_class_0::SimdPredAlu            0      0.00%     86.43% # Class of committed instruction
system.cpu0.commit.op_class_0::MemRead       23475782      9.62%     96.04% # Class of committed instruction
system.cpu0.commit.op_class_0::MemWrite       9398227      3.85%     99.89% # Class of committed instruction
system.cpu0.commit.op_class_0::FloatMemRead       262166      0.11%    100.00% # Class of committed instruction
system.cpu0.commit.op_class_0::FloatMemWrite           29      0.00%    100.00% # Class of committed instruction
system.cpu0.commit.op_class_0::IprAccess            0      0.00%    100.00% # Class of committed instruction
system.cpu0.commit.op_class_0::InstPrefetch            0      0.00%    100.00% # Class of committed instruction
system.cpu0.commit.op_class_0::total        244114658                       # Class of committed instruction
system.cpu0.commit.refs                      33136204                       # Number of memory references committed
system.cpu0.commit.swp_count                        0                       # Number of s/w prefetches committed
system.cpu0.commit.vec_insts                        0                       # Number of committed Vector instructions.
system.cpu0.committedInsts                  243852242                       # Number of Instructions Simulated
system.cpu0.committedOps                    244114658                       # Number of Ops (including micro ops) Simulated
system.cpu0.cpi                              1.922268                       # CPI: Cycles Per Instruction
system.cpu0.cpi_total                        1.922268                       # CPI: Total CPI of All Threads
system.cpu0.decode.BlockedCycles            160443717                       # Number of cycles decode is blocked
system.cpu0.decode.BranchMispred              6054995                       # Number of times decode detected a branch misprediction
system.cpu0.decode.BranchResolved            50462590                       # Number of times decode resolved a branch
system.cpu0.decode.DecodedInsts             405043056                       # Number of instructions handled by decode
system.cpu0.decode.IdleCycles                75107991                       # Number of cycles decode is idle
system.cpu0.decode.RunCycles                219462972                       # Number of cycles decode is running
system.cpu0.decode.SquashCycles               7074376                       # Number of cycles decode is squashing
system.cpu0.decode.SquashedInsts             12292046                       # Number of squashed instructions handled by decode
system.cpu0.decode.UnblockCycles              5517583                       # Number of cycles decode is unblocking
system.cpu0.dtb.accesses                            0                       # DTB accesses
system.cpu0.dtb.hits                                0                       # DTB hits
system.cpu0.dtb.misses                              0                       # DTB misses
system.cpu0.dtb.read_accesses                       0                       # DTB read accesses
system.cpu0.dtb.read_hits                           0                       # DTB read hits
system.cpu0.dtb.read_misses                         0                       # DTB read misses
system.cpu0.dtb.write_accesses                      0                       # DTB write accesses
system.cpu0.dtb.write_hits                          0                       # DTB write hits
system.cpu0.dtb.write_misses                        0                       # DTB write misses
system.cpu0.fetch.Branches                   78032653                       # Number of branches that fetch encountered
system.cpu0.fetch.CacheLines                 55751932                       # Number of cache lines fetched
system.cpu0.fetch.Cycles                    390294658                       # Number of cycles fetch has run and was not squashing or blocked
system.cpu0.fetch.IcacheSquashes               470008                       # Number of outstanding Icache misses that were squashed
system.cpu0.fetch.IcacheWaitRetryStallCycles          149                       # Number of stall cycles due to full MSHR
system.cpu0.fetch.Insts                     460933493                       # Number of instructions fetch has processed
system.cpu0.fetch.MiscStallCycles                  68                       # Number of cycles fetch has spent waiting on interrupts, or bad addresses, or out of MSHRs
system.cpu0.fetch.PendingTrapStallCycles           90                       # Number of stall cycles due to pending traps
system.cpu0.fetch.SquashCycles               26254074                       # Number of cycles fetch has spent squashing
system.cpu0.fetch.branchRate                 0.166470                       # Number of branch fetches per cycle
system.cpu0.fetch.icacheStallCycles          64184637                       # Number of cycles fetch is stalled on an Icache miss
system.cpu0.fetch.predictedBranches          62541946                       # Number of branches that fetch has predicted taken
system.cpu0.fetch.rate                       0.983326                       # Number of inst fetches per cycle
system.cpu0.fetch.rateDist::samples         467606639                       # Number of instructions fetched each cycle (Total)
system.cpu0.fetch.rateDist::mean             0.986291                       # Number of instructions fetched each cycle (Total)
system.cpu0.fetch.rateDist::stdev            1.284340                       # Number of instructions fetched each cycle (Total)
system.cpu0.fetch.rateDist::underflows              0      0.00%      0.00% # Number of instructions fetched each cycle (Total)
system.cpu0.fetch.rateDist::0               210351792     44.98%     44.98% # Number of instructions fetched each cycle (Total)
system.cpu0.fetch.rateDist::1               150192391     32.12%     77.10% # Number of instructions fetched each cycle (Total)
system.cpu0.fetch.rateDist::2                59195098     12.66%     89.76% # Number of instructions fetched each cycle (Total)
system.cpu0.fetch.rateDist::3                23085340      4.94%     94.70% # Number of instructions fetched each cycle (Total)
system.cpu0.fetch.rateDist::4                 8968969      1.92%     96.62% # Number of instructions fetched each cycle (Total)
system.cpu0.fetch.rateDist::5                 7415038      1.59%     98.20% # Number of instructions fetched each cycle (Total)
system.cpu0.fetch.rateDist::6                 8387929      1.79%    100.00% # Number of instructions fetched each cycle (Total)
system.cpu0.fetch.rateDist::7                    1736      0.00%    100.00% # Number of instructions fetched each cycle (Total)
system.cpu0.fetch.rateDist::8                    8346      0.00%    100.00% # Number of instructions fetched each cycle (Total)
system.cpu0.fetch.rateDist::overflows               0      0.00%    100.00% # Number of instructions fetched each cycle (Total)
system.cpu0.fetch.rateDist::min_value               0                       # Number of instructions fetched each cycle (Total)
system.cpu0.fetch.rateDist::max_value               8                       # Number of instructions fetched each cycle (Total)
system.cpu0.fetch.rateDist::total           467606639                       # Number of instructions fetched each cycle (Total)
system.cpu0.fp_regfile_reads                 57054861                       # number of floating regfile reads
system.cpu0.fp_regfile_writes                17814410                       # number of floating regfile writes
system.cpu0.idleCycles                        1142820                       # Total number of cycles that the CPU has spent unscheduled due to idling
system.cpu0.iew.branchMispredicts             7739339                       # Number of branch mispredicts detected at execute
system.cpu0.iew.exec_branches                54479629                       # Number of branches executed
system.cpu0.iew.exec_nop                            0                       # number of nop insts executed
system.cpu0.iew.exec_rate                    0.733020                       # Inst execution rate
system.cpu0.iew.exec_refs                    51733452                       # number of memory reference insts executed
system.cpu0.iew.exec_stores                  13007116                       # Number of stores executed
system.cpu0.iew.exec_swp                            0                       # number of swp insts executed
system.cpu0.iew.iewBlockCycles              146511854                       # Number of cycles IEW is blocking
system.cpu0.iew.iewDispLoadInsts             40079954                       # Number of dispatched load instructions
system.cpu0.iew.iewDispNonSpecInsts            263246                       # Number of dispatched non-speculative instructions
system.cpu0.iew.iewDispSquashedInsts          1918462                       # Number of squashed instructions skipped by dispatch
system.cpu0.iew.iewDispStoreInsts            16157811                       # Number of dispatched store instructions
system.cpu0.iew.iewDispatchedInsts          373952876                       # Number of instructions dispatched to IQ
system.cpu0.iew.iewExecLoadInsts             38726336                       # Number of load instructions executed
system.cpu0.iew.iewExecSquashedInsts          6795089                       # Number of squashed instructions skipped in execute
system.cpu0.iew.iewExecutedInsts            343602924                       # Number of executed instructions
system.cpu0.iew.iewIQFullEvents                769616                       # Number of times the IQ has become full, causing a stall
system.cpu0.iew.iewIdleCycles                       0                       # Number of cycles IEW is idle
system.cpu0.iew.iewLSQFullEvents               485779                       # Number of times the LSQ has become full, causing a stall
system.cpu0.iew.iewSquashCycles               7074376                       # Number of cycles IEW is squashing
system.cpu0.iew.iewUnblockCycles              2388383                       # Number of cycles IEW is unblocking
system.cpu0.iew.lsq.thread0.blockedLoads            0                       # Number of blocked loads due to partial load-store forwarding
system.cpu0.iew.lsq.thread0.cacheBlocked        24153                       # Number of times an access to memory failed due to the cache being blocked
system.cpu0.iew.lsq.thread0.forwLoads         1305982                       # Number of loads that had data forwarded from stores
system.cpu0.iew.lsq.thread0.ignoredResponses         7996                       # Number of memory responses ignored because the instruction is squashed
system.cpu0.iew.lsq.thread0.invAddrLoads            0                       # Number of loads ignored due to an invalid address
system.cpu0.iew.lsq.thread0.invAddrSwpfs            0                       # Number of software prefetches ignored due to an invalid address
system.cpu0.iew.lsq.thread0.memOrderViolation         1279                       # Number of memory ordering violations
system.cpu0.iew.lsq.thread0.rescheduledLoads          341                       # Number of loads that were rescheduled
system.cpu0.iew.lsq.thread0.squashedLoads     16604446                       # Number of loads squashed
system.cpu0.iew.lsq.thread0.squashedStores      6497115                       # Number of stores squashed
system.cpu0.iew.memOrderViolationEvents          1279                       # Number of memory order violations
system.cpu0.iew.predictedNotTakenIncorrect       316837                       # Number of branches that were predicted not taken incorrectly
system.cpu0.iew.predictedTakenIncorrect       7422502                       # Number of branches that were predicted taken incorrectly
system.cpu0.iew.wb_consumers                263576764                       # num instructions consuming a value
system.cpu0.iew.wb_count                    341260970                       # cumulative count of insts written-back
system.cpu0.iew.wb_fanout                    0.820161                       # average fanout of values written-back
system.cpu0.iew.wb_producers                216175312                       # num instructions producing a value
system.cpu0.iew.wb_rate                      0.728024                       # insts written-back per cycle
system.cpu0.iew.wb_sent                     341685734                       # cumulative count of insts sent to commit
system.cpu0.int_regfile_reads               394436825                       # number of integer regfile reads
system.cpu0.int_regfile_writes              261299853                       # number of integer regfile writes
system.cpu0.ipc                              0.520219                       # IPC: Instructions Per Cycle
system.cpu0.ipc_total                        0.520219                       # IPC: Total IPC of All Threads
system.cpu0.iq.FU_type_0::No_OpClass           525059      0.15%      0.15% # Type of FU issued
system.cpu0.iq.FU_type_0::IntAlu            264150702     75.39%     75.54% # Type of FU issued
system.cpu0.iq.FU_type_0::IntMult               18565      0.01%     75.54% # Type of FU issued
system.cpu0.iq.FU_type_0::IntDiv                33052      0.01%     75.55% # Type of FU issued
system.cpu0.iq.FU_type_0::FloatAdd            8588157      2.45%     78.00% # Type of FU issued
system.cpu0.iq.FU_type_0::FloatCmp           15657441      4.47%     82.47% # Type of FU issued
system.cpu0.iq.FU_type_0::FloatCvt            4727260      1.35%     83.82% # Type of FU issued
system.cpu0.iq.FU_type_0::FloatMult           4290131      1.22%     85.04% # Type of FU issued
system.cpu0.iq.FU_type_0::FloatMultAcc              0      0.00%     85.04% # Type of FU issued
system.cpu0.iq.FU_type_0::FloatDiv                  2      0.00%     85.04% # Type of FU issued
system.cpu0.iq.FU_type_0::FloatMisc                 6      0.00%     85.04% # Type of FU issued
system.cpu0.iq.FU_type_0::FloatSqrt                 0      0.00%     85.04% # Type of FU issued
system.cpu0.iq.FU_type_0::SimdAdd                   0      0.00%     85.04% # Type of FU issued
system.cpu0.iq.FU_type_0::SimdAddAcc                0      0.00%     85.04% # Type of FU issued
system.cpu0.iq.FU_type_0::SimdAlu                   0      0.00%     85.04% # Type of FU issued
system.cpu0.iq.FU_type_0::SimdCmp                   0      0.00%     85.04% # Type of FU issued
system.cpu0.iq.FU_type_0::SimdCvt                   0      0.00%     85.04% # Type of FU issued
system.cpu0.iq.FU_type_0::SimdMisc                  0      0.00%     85.04% # Type of FU issued
system.cpu0.iq.FU_type_0::SimdMult                  0      0.00%     85.04% # Type of FU issued
system.cpu0.iq.FU_type_0::SimdMultAcc               0      0.00%     85.04% # Type of FU issued
system.cpu0.iq.FU_type_0::SimdShift                 0      0.00%     85.04% # Type of FU issued
system.cpu0.iq.FU_type_0::SimdShiftAcc              0      0.00%     85.04% # Type of FU issued
system.cpu0.iq.FU_type_0::SimdDiv                   0      0.00%     85.04% # Type of FU issued
system.cpu0.iq.FU_type_0::SimdSqrt                  0      0.00%     85.04% # Type of FU issued
system.cpu0.iq.FU_type_0::SimdFloatAdd              0      0.00%     85.04% # Type of FU issued
system.cpu0.iq.FU_type_0::SimdFloatAlu              0      0.00%     85.04% # Type of FU issued
system.cpu0.iq.FU_type_0::SimdFloatCmp              0      0.00%     85.04% # Type of FU issued
system.cpu0.iq.FU_type_0::SimdFloatCvt              0      0.00%     85.04% # Type of FU issued
system.cpu0.iq.FU_type_0::SimdFloatDiv              0      0.00%     85.04% # Type of FU issued
system.cpu0.iq.FU_type_0::SimdFloatMisc             0      0.00%     85.04% # Type of FU issued
system.cpu0.iq.FU_type_0::SimdFloatMult             0      0.00%     85.04% # Type of FU issued
system.cpu0.iq.FU_type_0::SimdFloatMultAcc            0      0.00%     85.04% # Type of FU issued
system.cpu0.iq.FU_type_0::SimdFloatSqrt             0      0.00%     85.04% # Type of FU issued
system.cpu0.iq.FU_type_0::SimdReduceAdd             0      0.00%     85.04% # Type of FU issued
system.cpu0.iq.FU_type_0::SimdReduceAlu             0      0.00%     85.04% # Type of FU issued
system.cpu0.iq.FU_type_0::SimdReduceCmp             0      0.00%     85.04% # Type of FU issued
system.cpu0.iq.FU_type_0::SimdFloatReduceAdd            0      0.00%     85.04% # Type of FU issued
system.cpu0.iq.FU_type_0::SimdFloatReduceCmp            0      0.00%     85.04% # Type of FU issued
system.cpu0.iq.FU_type_0::SimdAes                   0      0.00%     85.04% # Type of FU issued
system.cpu0.iq.FU_type_0::SimdAesMix                0      0.00%     85.04% # Type of FU issued
system.cpu0.iq.FU_type_0::SimdSha1Hash              0      0.00%     85.04% # Type of FU issued
system.cpu0.iq.FU_type_0::SimdSha1Hash2             0      0.00%     85.04% # Type of FU issued
system.cpu0.iq.FU_type_0::SimdSha256Hash            0      0.00%     85.04% # Type of FU issued
system.cpu0.iq.FU_type_0::SimdSha256Hash2            0      0.00%     85.04% # Type of FU issued
system.cpu0.iq.FU_type_0::SimdShaSigma2             0      0.00%     85.04% # Type of FU issued
system.cpu0.iq.FU_type_0::SimdShaSigma3             0      0.00%     85.04% # Type of FU issued
system.cpu0.iq.FU_type_0::SimdPredAlu               0      0.00%     85.04% # Type of FU issued
system.cpu0.iq.FU_type_0::MemRead            39072525     11.15%     96.19% # Type of FU issued
system.cpu0.iq.FU_type_0::MemWrite           13011153      3.71%     99.91% # Type of FU issued
system.cpu0.iq.FU_type_0::FloatMemRead         323931      0.09%    100.00% # Type of FU issued
system.cpu0.iq.FU_type_0::FloatMemWrite            30      0.00%    100.00% # Type of FU issued
system.cpu0.iq.FU_type_0::IprAccess                 0      0.00%    100.00% # Type of FU issued
system.cpu0.iq.FU_type_0::InstPrefetch              0      0.00%    100.00% # Type of FU issued
system.cpu0.iq.FU_type_0::total             350398014                       # Type of FU issued
system.cpu0.iq.fp_alu_accesses               33587554                       # Number of floating point alu accesses
system.cpu0.iq.fp_inst_queue_reads           67174512                       # Number of floating instruction queue reads
system.cpu0.iq.fp_inst_queue_wakeup_accesses     33471718                       # Number of floating instruction queue wakeup accesses
system.cpu0.iq.fp_inst_queue_writes          42145793                       # Number of floating instruction queue writes
system.cpu0.iq.fu_busy_cnt                    2101646                       # FU busy when requested
system.cpu0.iq.fu_busy_rate                  0.005998                       # FU busy rate (busy events/executed inst)
system.cpu0.iq.fu_full::No_OpClass                  0      0.00%      0.00% # attempts to use FU when none available
system.cpu0.iq.fu_full::IntAlu                1980316     94.23%     94.23% # attempts to use FU when none available
system.cpu0.iq.fu_full::IntMult                  8335      0.40%     94.62% # attempts to use FU when none available
system.cpu0.iq.fu_full::IntDiv                  16019      0.76%     95.39% # attempts to use FU when none available
system.cpu0.iq.fu_full::FloatAdd                  203      0.01%     95.40% # attempts to use FU when none available
system.cpu0.iq.fu_full::FloatCmp                  353      0.02%     95.41% # attempts to use FU when none available
system.cpu0.iq.fu_full::FloatCvt                   34      0.00%     95.41% # attempts to use FU when none available
system.cpu0.iq.fu_full::FloatMult                   0      0.00%     95.41% # attempts to use FU when none available
system.cpu0.iq.fu_full::FloatMultAcc                0      0.00%     95.41% # attempts to use FU when none available
system.cpu0.iq.fu_full::FloatDiv                    0      0.00%     95.41% # attempts to use FU when none available
system.cpu0.iq.fu_full::FloatMisc                   0      0.00%     95.41% # attempts to use FU when none available
system.cpu0.iq.fu_full::FloatSqrt                   0      0.00%     95.41% # attempts to use FU when none available
system.cpu0.iq.fu_full::SimdAdd                     0      0.00%     95.41% # attempts to use FU when none available
system.cpu0.iq.fu_full::SimdAddAcc                  0      0.00%     95.41% # attempts to use FU when none available
system.cpu0.iq.fu_full::SimdAlu                     0      0.00%     95.41% # attempts to use FU when none available
system.cpu0.iq.fu_full::SimdCmp                     0      0.00%     95.41% # attempts to use FU when none available
system.cpu0.iq.fu_full::SimdCvt                     0      0.00%     95.41% # attempts to use FU when none available
system.cpu0.iq.fu_full::SimdMisc                    0      0.00%     95.41% # attempts to use FU when none available
system.cpu0.iq.fu_full::SimdMult                    0      0.00%     95.41% # attempts to use FU when none available
system.cpu0.iq.fu_full::SimdMultAcc                 0      0.00%     95.41% # attempts to use FU when none available
system.cpu0.iq.fu_full::SimdShift                   0      0.00%     95.41% # attempts to use FU when none available
system.cpu0.iq.fu_full::SimdShiftAcc                0      0.00%     95.41% # attempts to use FU when none available
system.cpu0.iq.fu_full::SimdDiv                     0      0.00%     95.41% # attempts to use FU when none available
system.cpu0.iq.fu_full::SimdSqrt                    0      0.00%     95.41% # attempts to use FU when none available
system.cpu0.iq.fu_full::SimdFloatAdd                0      0.00%     95.41% # attempts to use FU when none available
system.cpu0.iq.fu_full::SimdFloatAlu                0      0.00%     95.41% # attempts to use FU when none available
system.cpu0.iq.fu_full::SimdFloatCmp                0      0.00%     95.41% # attempts to use FU when none available
system.cpu0.iq.fu_full::SimdFloatCvt                0      0.00%     95.41% # attempts to use FU when none available
system.cpu0.iq.fu_full::SimdFloatDiv                0      0.00%     95.41% # attempts to use FU when none available
system.cpu0.iq.fu_full::SimdFloatMisc               0      0.00%     95.41% # attempts to use FU when none available
system.cpu0.iq.fu_full::SimdFloatMult               0      0.00%     95.41% # attempts to use FU when none available
system.cpu0.iq.fu_full::SimdFloatMultAcc            0      0.00%     95.41% # attempts to use FU when none available
system.cpu0.iq.fu_full::SimdFloatSqrt               0      0.00%     95.41% # attempts to use FU when none available
system.cpu0.iq.fu_full::SimdReduceAdd               0      0.00%     95.41% # attempts to use FU when none available
system.cpu0.iq.fu_full::SimdReduceAlu               0      0.00%     95.41% # attempts to use FU when none available
system.cpu0.iq.fu_full::SimdReduceCmp               0      0.00%     95.41% # attempts to use FU when none available
system.cpu0.iq.fu_full::SimdFloatReduceAdd            0      0.00%     95.41% # attempts to use FU when none available
system.cpu0.iq.fu_full::SimdFloatReduceCmp            0      0.00%     95.41% # attempts to use FU when none available
system.cpu0.iq.fu_full::SimdAes                     0      0.00%     95.41% # attempts to use FU when none available
system.cpu0.iq.fu_full::SimdAesMix                  0      0.00%     95.41% # attempts to use FU when none available
system.cpu0.iq.fu_full::SimdSha1Hash                0      0.00%     95.41% # attempts to use FU when none available
system.cpu0.iq.fu_full::SimdSha1Hash2               0      0.00%     95.41% # attempts to use FU when none available
system.cpu0.iq.fu_full::SimdSha256Hash              0      0.00%     95.41% # attempts to use FU when none available
system.cpu0.iq.fu_full::SimdSha256Hash2             0      0.00%     95.41% # attempts to use FU when none available
system.cpu0.iq.fu_full::SimdShaSigma2               0      0.00%     95.41% # attempts to use FU when none available
system.cpu0.iq.fu_full::SimdShaSigma3               0      0.00%     95.41% # attempts to use FU when none available
system.cpu0.iq.fu_full::SimdPredAlu                 0      0.00%     95.41% # attempts to use FU when none available
system.cpu0.iq.fu_full::MemRead                 90544      4.31%     99.72% # attempts to use FU when none available
system.cpu0.iq.fu_full::MemWrite                 5836      0.28%    100.00% # attempts to use FU when none available
system.cpu0.iq.fu_full::FloatMemRead                2      0.00%    100.00% # attempts to use FU when none available
system.cpu0.iq.fu_full::FloatMemWrite               4      0.00%    100.00% # attempts to use FU when none available
system.cpu0.iq.fu_full::IprAccess                   0      0.00%    100.00% # attempts to use FU when none available
system.cpu0.iq.fu_full::InstPrefetch                0      0.00%    100.00% # attempts to use FU when none available
system.cpu0.iq.int_alu_accesses             318387047                       # Number of integer alu accesses
system.cpu0.iq.int_inst_queue_reads        1104976970                       # Number of integer instruction queue reads
system.cpu0.iq.int_inst_queue_wakeup_accesses    307789252                       # Number of integer instruction queue wakeup accesses
system.cpu0.iq.int_inst_queue_writes        461646070                       # Number of integer instruction queue writes
system.cpu0.iq.iqInstsAdded                 373164627                       # Number of instructions added to the IQ (excludes non-spec)
system.cpu0.iq.iqInstsIssued                350398014                       # Number of instructions issued
system.cpu0.iq.iqNonSpecInstsAdded             788249                       # Number of non-speculative instructions added to the IQ
system.cpu0.iq.iqSquashedInstsExamined      129838214                       # Number of squashed instructions iterated over during squash; mainly for profiling
system.cpu0.iq.iqSquashedInstsIssued          1647170                       # Number of squashed instructions issued
system.cpu0.iq.iqSquashedNonSpecRemoved           444                       # Number of squashed non-spec instructions that were removed
system.cpu0.iq.iqSquashedOperandsExamined     39301971                       # Number of squashed operands that are examined and possibly removed from graph
system.cpu0.iq.issued_per_cycle::samples    467606639                       # Number of insts issued each cycle
system.cpu0.iq.issued_per_cycle::mean        0.749344                       # Number of insts issued each cycle
system.cpu0.iq.issued_per_cycle::stdev       1.144646                       # Number of insts issued each cycle
system.cpu0.iq.issued_per_cycle::underflows            0      0.00%      0.00% # Number of insts issued each cycle
system.cpu0.iq.issued_per_cycle::0          264584208     56.58%     56.58% # Number of insts issued each cycle
system.cpu0.iq.issued_per_cycle::1          117885757     25.21%     81.79% # Number of insts issued each cycle
system.cpu0.iq.issued_per_cycle::2           54344944     11.62%     93.42% # Number of insts issued each cycle
system.cpu0.iq.issued_per_cycle::3           13348207      2.85%     96.27% # Number of insts issued each cycle
system.cpu0.iq.issued_per_cycle::4            8686556      1.86%     98.13% # Number of insts issued each cycle
system.cpu0.iq.issued_per_cycle::5            5260662      1.13%     99.25% # Number of insts issued each cycle
system.cpu0.iq.issued_per_cycle::6            2101461      0.45%     99.70% # Number of insts issued each cycle
system.cpu0.iq.issued_per_cycle::7            1039304      0.22%     99.92% # Number of insts issued each cycle
system.cpu0.iq.issued_per_cycle::8             355540      0.08%    100.00% # Number of insts issued each cycle
system.cpu0.iq.issued_per_cycle::overflows            0      0.00%    100.00% # Number of insts issued each cycle
system.cpu0.iq.issued_per_cycle::min_value            0                       # Number of insts issued each cycle
system.cpu0.iq.issued_per_cycle::max_value            8                       # Number of insts issued each cycle
system.cpu0.iq.issued_per_cycle::total      467606639                       # Number of insts issued each cycle
system.cpu0.iq.rate                          0.747517                       # Inst issue rate
system.cpu0.iq.vec_alu_accesses                     0                       # Number of vector alu accesses
system.cpu0.iq.vec_inst_queue_reads                 0                       # Number of vector instruction queue reads
system.cpu0.iq.vec_inst_queue_wakeup_accesses            0                       # Number of vector instruction queue wakeup accesses
system.cpu0.iq.vec_inst_queue_writes                0                       # Number of vector instruction queue writes
system.cpu0.itb.accesses                            0                       # DTB accesses
system.cpu0.itb.hits                                0                       # DTB hits
system.cpu0.itb.misses                              0                       # DTB misses
system.cpu0.itb.read_accesses                       0                       # DTB read accesses
system.cpu0.itb.read_hits                           0                       # DTB read hits
system.cpu0.itb.read_misses                         0                       # DTB read misses
system.cpu0.itb.write_accesses                      0                       # DTB write accesses
system.cpu0.itb.write_hits                          0                       # DTB write hits
system.cpu0.itb.write_misses                        0                       # DTB write misses
system.cpu0.memDep0.conflictingLoads          2313838                       # Number of conflicting loads.
system.cpu0.memDep0.conflictingStores          783467                       # Number of conflicting stores.
system.cpu0.memDep0.insertedLoads            40079954                       # Number of loads inserted to the mem dependence unit.
system.cpu0.memDep0.insertedStores           16157811                       # Number of stores inserted to the mem dependence unit.
system.cpu0.misc_regfile_reads               50318223                       # number of misc regfile reads
system.cpu0.misc_regfile_writes              25952286                       # number of misc regfile writes
system.cpu0.numCycles                       468749459                       # number of cpu cycles simulated
system.cpu0.numWorkItemsCompleted                   0                       # number of work items this cpu completed
system.cpu0.numWorkItemsStarted                     0                       # number of work items this cpu started
system.cpu0.quiesceCycles                      112449                       # Total number of cycles that CPU has spent quiesced or waiting for an interrupt
system.cpu0.rename.BlockCycles              154067900                       # Number of cycles rename is blocking
system.cpu0.rename.CommittedMaps            200372909                       # Number of HB maps that are committed
system.cpu0.rename.IQFullEvents               4707315                       # Number of times rename has blocked due to IQ full
system.cpu0.rename.IdleCycles                88228923                       # Number of cycles rename is idle
system.cpu0.rename.LQFullEvents                832460                       # Number of times rename has blocked due to LQ full
system.cpu0.rename.ROBFullEvents                40743                       # Number of times rename has blocked due to ROB full
system.cpu0.rename.RenameLookups            516638848                       # Number of register rename lookups that rename has made
system.cpu0.rename.RenamedInsts             392203794                       # Number of instructions processed by rename
system.cpu0.rename.RenamedOperands          317556293                       # Number of destination operands rename has renamed
system.cpu0.rename.RunCycles                210822259                       # Number of cycles rename is running
system.cpu0.rename.SQFullEvents                484044                       # Number of times rename has blocked due to SQ full
system.cpu0.rename.SquashCycles               7074376                       # Number of cycles rename is squashing
system.cpu0.rename.UnblockCycles              7392181                       # Number of cycles rename is unblocking
system.cpu0.rename.UndoneMaps               117183379                       # Number of HB maps that are undone due to squashing
system.cpu0.rename.fp_rename_lookups         58760823                       # Number of floating rename lookups
system.cpu0.rename.int_rename_lookups       457878025                       # Number of integer rename lookups
system.cpu0.rename.serializeStallCycles         21000                       # count of cycles rename stalled for serializing inst
system.cpu0.rename.serializingInsts               567                       # count of serializing insts renamed
system.cpu0.rename.skidInsts                 10465611                       # count of insts added to the skid buffer
system.cpu0.rename.tempSerializingInsts           566                       # count of temporary serializing insts renamed
system.cpu0.rob.rob_reads                   821477562                       # The number of ROB reads
system.cpu0.rob.rob_writes                  766856237                       # The number of ROB writes
system.cpu0.timesIdled                          15859                       # Number of times that the entire CPU went into an idle state and unscheduled itself
system.cpu0.workload.numSyscalls                  148                       # Number of system calls
system.cpu1.branchPred.BTBCorrect                   0                       # Number of correct BTB predictions (this stat may not work properly.
system.cpu1.branchPred.BTBHitPct            96.403047                       # BTB Hit Percentage
system.cpu1.branchPred.BTBHits                3705897                       # Number of BTB hits
system.cpu1.branchPred.BTBLookups             3844170                       # Number of BTB lookups
system.cpu1.branchPred.RASInCorrect                 0                       # Number of incorrect RAS predictions.
system.cpu1.branchPred.condIncorrect           651233                       # Number of conditional branches incorrect
system.cpu1.branchPred.condPredicted          4900452                       # Number of conditional branches predicted
system.cpu1.branchPred.indirectHits             43675                       # Number of indirect target hits.
system.cpu1.branchPred.indirectLookups          52160                       # Number of indirect predictor lookups.
system.cpu1.branchPred.indirectMisses            8485                       # Number of indirect misses.
system.cpu1.branchPred.lookups                5959517                       # Number of BP lookups
system.cpu1.branchPred.usedRAS                      0                       # Number of times the RAS was used to get a target.
system.cpu1.branchPredindirectMispredicted         4776                       # Number of mispredicted indirect branches.
system.cpu1.commit.amos                        262264                       # Number of atomic instructions committed
system.cpu1.commit.branchMispredicts           620875                       # The number of times a branch was mispredicted
system.cpu1.commit.branches                   3408230                       # Number of branches committed
system.cpu1.commit.bw_lim_events                81419                       # number cycles where commit BW limit reached
system.cpu1.commit.commitNonSpecStalls         787036                       # The number of times commit has been forced to stall to communicate backwards
system.cpu1.commit.commitSquashedInsts        5703915                       # The number of squashed insts skipped by commit
system.cpu1.commit.committedInsts            14268075                       # Number of instructions committed
system.cpu1.commit.committedOps              14530409                       # Number of ops (including micro ops) committed
system.cpu1.commit.committed_per_cycle::samples    116142946                       # Number of insts commited each cycle
system.cpu1.commit.committed_per_cycle::mean     0.125108                       # Number of insts commited each cycle
system.cpu1.commit.committed_per_cycle::stdev     0.571144                       # Number of insts commited each cycle
system.cpu1.commit.committed_per_cycle::underflows            0      0.00%      0.00% # Number of insts commited each cycle
system.cpu1.commit.committed_per_cycle::0    108563524     93.47%     93.47% # Number of insts commited each cycle
system.cpu1.commit.committed_per_cycle::1      3968670      3.42%     96.89% # Number of insts commited each cycle
system.cpu1.commit.committed_per_cycle::2      1495623      1.29%     98.18% # Number of insts commited each cycle
system.cpu1.commit.committed_per_cycle::3      1413760      1.22%     99.40% # Number of insts commited each cycle
system.cpu1.commit.committed_per_cycle::4       469006      0.40%     99.80% # Number of insts commited each cycle
system.cpu1.commit.committed_per_cycle::5       115086      0.10%     99.90% # Number of insts commited each cycle
system.cpu1.commit.committed_per_cycle::6        24599      0.02%     99.92% # Number of insts commited each cycle
system.cpu1.commit.committed_per_cycle::7        11259      0.01%     99.93% # Number of insts commited each cycle
system.cpu1.commit.committed_per_cycle::8        81419      0.07%    100.00% # Number of insts commited each cycle
system.cpu1.commit.committed_per_cycle::overflows            0      0.00%    100.00% # Number of insts commited each cycle
system.cpu1.commit.committed_per_cycle::min_value            0                       # Number of insts commited each cycle
system.cpu1.commit.committed_per_cycle::max_value            8                       # Number of insts commited each cycle
system.cpu1.commit.committed_per_cycle::total    116142946                       # Number of insts commited each cycle
system.cpu1.commit.fp_insts                        24                       # Number of committed floating point instructions.
system.cpu1.commit.function_calls               60492                       # Number of function calls committed.
system.cpu1.commit.int_insts                 13482558                       # Number of committed integer instructions.
system.cpu1.commit.loads                      3731267                       # Number of loads committed
system.cpu1.commit.membars                     524558                       # Number of memory barriers committed
system.cpu1.commit.op_class_0::No_OpClass       524558      3.61%      3.61% # Class of committed instruction
system.cpu1.commit.op_class_0::IntAlu         8689260     59.80%     63.41% # Class of committed instruction
system.cpu1.commit.op_class_0::IntMult            638      0.00%     63.41% # Class of committed instruction
system.cpu1.commit.op_class_0::IntDiv              30      0.00%     63.42% # Class of committed instruction
system.cpu1.commit.op_class_0::FloatAdd             0      0.00%     63.42% # Class of committed instruction
system.cpu1.commit.op_class_0::FloatCmp             0      0.00%     63.42% # Class of committed instruction
system.cpu1.commit.op_class_0::FloatCvt             0      0.00%     63.42% # Class of committed instruction
system.cpu1.commit.op_class_0::FloatMult            0      0.00%     63.42% # Class of committed instruction
system.cpu1.commit.op_class_0::FloatMultAcc            0      0.00%     63.42% # Class of committed instruction
system.cpu1.commit.op_class_0::FloatDiv             0      0.00%     63.42% # Class of committed instruction
system.cpu1.commit.op_class_0::FloatMisc            0      0.00%     63.42% # Class of committed instruction
system.cpu1.commit.op_class_0::FloatSqrt            0      0.00%     63.42% # Class of committed instruction
system.cpu1.commit.op_class_0::SimdAdd              0      0.00%     63.42% # Class of committed instruction
system.cpu1.commit.op_class_0::SimdAddAcc            0      0.00%     63.42% # Class of committed instruction
system.cpu1.commit.op_class_0::SimdAlu              0      0.00%     63.42% # Class of committed instruction
system.cpu1.commit.op_class_0::SimdCmp              0      0.00%     63.42% # Class of committed instruction
system.cpu1.commit.op_class_0::SimdCvt              0      0.00%     63.42% # Class of committed instruction
system.cpu1.commit.op_class_0::SimdMisc             0      0.00%     63.42% # Class of committed instruction
system.cpu1.commit.op_class_0::SimdMult             0      0.00%     63.42% # Class of committed instruction
system.cpu1.commit.op_class_0::SimdMultAcc            0      0.00%     63.42% # Class of committed instruction
system.cpu1.commit.op_class_0::SimdShift            0      0.00%     63.42% # Class of committed instruction
system.cpu1.commit.op_class_0::SimdShiftAcc            0      0.00%     63.42% # Class of committed instruction
system.cpu1.commit.op_class_0::SimdDiv              0      0.00%     63.42% # Class of committed instruction
system.cpu1.commit.op_class_0::SimdSqrt             0      0.00%     63.42% # Class of committed instruction
system.cpu1.commit.op_class_0::SimdFloatAdd            0      0.00%     63.42% # Class of committed instruction
system.cpu1.commit.op_class_0::SimdFloatAlu            0      0.00%     63.42% # Class of committed instruction
system.cpu1.commit.op_class_0::SimdFloatCmp            0      0.00%     63.42% # Class of committed instruction
system.cpu1.commit.op_class_0::SimdFloatCvt            0      0.00%     63.42% # Class of committed instruction
system.cpu1.commit.op_class_0::SimdFloatDiv            0      0.00%     63.42% # Class of committed instruction
system.cpu1.commit.op_class_0::SimdFloatMisc            0      0.00%     63.42% # Class of committed instruction
system.cpu1.commit.op_class_0::SimdFloatMult            0      0.00%     63.42% # Class of committed instruction
system.cpu1.commit.op_class_0::SimdFloatMultAcc            0      0.00%     63.42% # Class of committed instruction
system.cpu1.commit.op_class_0::SimdFloatSqrt            0      0.00%     63.42% # Class of committed instruction
system.cpu1.commit.op_class_0::SimdReduceAdd            0      0.00%     63.42% # Class of committed instruction
system.cpu1.commit.op_class_0::SimdReduceAlu            0      0.00%     63.42% # Class of committed instruction
system.cpu1.commit.op_class_0::SimdReduceCmp            0      0.00%     63.42% # Class of committed instruction
system.cpu1.commit.op_class_0::SimdFloatReduceAdd            0      0.00%     63.42% # Class of committed instruction
system.cpu1.commit.op_class_0::SimdFloatReduceCmp            0      0.00%     63.42% # Class of committed instruction
system.cpu1.commit.op_class_0::SimdAes              0      0.00%     63.42% # Class of committed instruction
system.cpu1.commit.op_class_0::SimdAesMix            0      0.00%     63.42% # Class of committed instruction
system.cpu1.commit.op_class_0::SimdSha1Hash            0      0.00%     63.42% # Class of committed instruction
system.cpu1.commit.op_class_0::SimdSha1Hash2            0      0.00%     63.42% # Class of committed instruction
system.cpu1.commit.op_class_0::SimdSha256Hash            0      0.00%     63.42% # Class of committed instruction
system.cpu1.commit.op_class_0::SimdSha256Hash2            0      0.00%     63.42% # Class of committed instruction
system.cpu1.commit.op_class_0::SimdShaSigma2            0      0.00%     63.42% # Class of committed instruction
system.cpu1.commit.op_class_0::SimdShaSigma3            0      0.00%     63.42% # Class of committed instruction
system.cpu1.commit.op_class_0::SimdPredAlu            0      0.00%     63.42% # Class of committed instruction
system.cpu1.commit.op_class_0::MemRead        3993525     27.48%     90.90% # Class of committed instruction
system.cpu1.commit.op_class_0::MemWrite       1322374      9.10%    100.00% # Class of committed instruction
system.cpu1.commit.op_class_0::FloatMemRead            6      0.00%    100.00% # Class of committed instruction
system.cpu1.commit.op_class_0::FloatMemWrite           18      0.00%    100.00% # Class of committed instruction
system.cpu1.commit.op_class_0::IprAccess            0      0.00%    100.00% # Class of committed instruction
system.cpu1.commit.op_class_0::InstPrefetch            0      0.00%    100.00% # Class of committed instruction
system.cpu1.commit.op_class_0::total         14530409                       # Class of committed instruction
system.cpu1.commit.refs                       5315923                       # Number of memory references committed
system.cpu1.commit.swp_count                        0                       # Number of s/w prefetches committed
system.cpu1.commit.vec_insts                        0                       # Number of committed Vector instructions.
system.cpu1.committedInsts                   14268075                       # Number of Instructions Simulated
system.cpu1.committedOps                     14530409                       # Number of Ops (including micro ops) Simulated
system.cpu1.cpi                              8.244062                       # CPI: Cycles Per Instruction
system.cpu1.cpi_total                        8.244062                       # CPI: Total CPI of All Threads
system.cpu1.decode.BlockedCycles            100314420                       # Number of cycles decode is blocked
system.cpu1.decode.BranchMispred                31056                       # Number of times decode detected a branch misprediction
system.cpu1.decode.BranchResolved             3424904                       # Number of times decode resolved a branch
system.cpu1.decode.DecodedInsts              22653658                       # Number of instructions handled by decode
system.cpu1.decode.IdleCycles                 3648390                       # Number of cycles decode is idle
system.cpu1.decode.RunCycles                 11812714                       # Number of cycles decode is running
system.cpu1.decode.SquashCycles                621248                       # Number of cycles decode is squashing
system.cpu1.decode.SquashedInsts                55471                       # Number of squashed instructions handled by decode
system.cpu1.decode.UnblockCycles               789931                       # Number of cycles decode is unblocking
system.cpu1.dtb.accesses                            0                       # DTB accesses
system.cpu1.dtb.hits                                0                       # DTB hits
system.cpu1.dtb.misses                              0                       # DTB misses
system.cpu1.dtb.read_accesses                       0                       # DTB read accesses
system.cpu1.dtb.read_hits                           0                       # DTB read hits
system.cpu1.dtb.read_misses                         0                       # DTB read misses
system.cpu1.dtb.write_accesses                      0                       # DTB write accesses
system.cpu1.dtb.write_hits                          0                       # DTB write hits
system.cpu1.dtb.write_misses                        0                       # DTB write misses
system.cpu1.fetch.Branches                    5959517                       # Number of branches that fetch encountered
system.cpu1.fetch.CacheLines                  2814308                       # Number of cache lines fetched
system.cpu1.fetch.Cycles                    113363242                       # Number of cycles fetch has run and was not squashing or blocked
system.cpu1.fetch.IcacheSquashes               190897                       # Number of outstanding Icache misses that were squashed
system.cpu1.fetch.IcacheWaitRetryStallCycles           24                       # Number of stall cycles due to full MSHR
system.cpu1.fetch.Insts                      23715766                       # Number of instructions fetch has processed
system.cpu1.fetch.MiscStallCycles                   2                       # Number of cycles fetch has spent waiting on interrupts, or bad addresses, or out of MSHRs
system.cpu1.fetch.SquashCycles                1303212                       # Number of cycles fetch has spent squashing
system.cpu1.fetch.branchRate                 0.050665                       # Number of branch fetches per cycle
system.cpu1.fetch.icacheStallCycles           3171829                       # Number of cycles fetch is stalled on an Icache miss
system.cpu1.fetch.predictedBranches           3749572                       # Number of branches that fetch has predicted taken
system.cpu1.fetch.rate                       0.201619                       # Number of inst fetches per cycle
system.cpu1.fetch.rateDist::samples         117186703                       # Number of instructions fetched each cycle (Total)
system.cpu1.fetch.rateDist::mean             0.204617                       # Number of instructions fetched each cycle (Total)
system.cpu1.fetch.rateDist::stdev            0.600307                       # Number of instructions fetched each cycle (Total)
system.cpu1.fetch.rateDist::underflows              0      0.00%      0.00% # Number of instructions fetched each cycle (Total)
system.cpu1.fetch.rateDist::0               100678737     85.91%     85.91% # Number of instructions fetched each cycle (Total)
system.cpu1.fetch.rateDist::1                11664028      9.95%     95.87% # Number of instructions fetched each cycle (Total)
system.cpu1.fetch.rateDist::2                 3232931      2.76%     98.63% # Number of instructions fetched each cycle (Total)
system.cpu1.fetch.rateDist::3                  968525      0.83%     99.45% # Number of instructions fetched each cycle (Total)
system.cpu1.fetch.rateDist::4                  343336      0.29%     99.74% # Number of instructions fetched each cycle (Total)
system.cpu1.fetch.rateDist::5                  239011      0.20%     99.95% # Number of instructions fetched each cycle (Total)
system.cpu1.fetch.rateDist::6                   52666      0.04%     99.99% # Number of instructions fetched each cycle (Total)
system.cpu1.fetch.rateDist::7                    1218      0.00%     99.99% # Number of instructions fetched each cycle (Total)
system.cpu1.fetch.rateDist::8                    6251      0.01%    100.00% # Number of instructions fetched each cycle (Total)
system.cpu1.fetch.rateDist::overflows               0      0.00%    100.00% # Number of instructions fetched each cycle (Total)
system.cpu1.fetch.rateDist::min_value               0                       # Number of instructions fetched each cycle (Total)
system.cpu1.fetch.rateDist::max_value               8                       # Number of instructions fetched each cycle (Total)
system.cpu1.fetch.rateDist::total           117186703                       # Number of instructions fetched each cycle (Total)
system.cpu1.fp_regfile_reads                       18                       # number of floating regfile reads
system.cpu1.fp_regfile_writes                      12                       # number of floating regfile writes
system.cpu1.idleCycles                         440199                       # Total number of cycles that the CPU has spent unscheduled due to idling
system.cpu1.iew.branchMispredicts              645282                       # Number of branch mispredicts detected at execute
system.cpu1.iew.exec_branches                 4072479                       # Number of branches executed
system.cpu1.iew.exec_nop                            0                       # number of nop insts executed
system.cpu1.iew.exec_rate                    0.153974                       # Inst execution rate
system.cpu1.iew.exec_refs                     6368171                       # number of memory reference insts executed
system.cpu1.iew.exec_stores                   1962774                       # Number of stores executed
system.cpu1.iew.exec_swp                            0                       # number of swp insts executed
system.cpu1.iew.iewBlockCycles               93359094                       # Number of cycles IEW is blocking
system.cpu1.iew.iewDispLoadInsts              4942012                       # Number of dispatched load instructions
system.cpu1.iew.iewDispNonSpecInsts            262754                       # Number of dispatched non-speculative instructions
system.cpu1.iew.iewDispSquashedInsts           573519                       # Number of squashed instructions skipped by dispatch
system.cpu1.iew.iewDispStoreInsts             2322905                       # Number of dispatched store instructions
system.cpu1.iew.iewDispatchedInsts           20232285                       # Number of instructions dispatched to IQ
system.cpu1.iew.iewExecLoadInsts              4405397                       # Number of load instructions executed
system.cpu1.iew.iewExecSquashedInsts           775785                       # Number of squashed instructions skipped in execute
system.cpu1.iew.iewExecutedInsts             18111474                       # Number of executed instructions
system.cpu1.iew.iewIQFullEvents                108293                       # Number of times the IQ has become full, causing a stall
system.cpu1.iew.iewIdleCycles                       0                       # Number of cycles IEW is idle
system.cpu1.iew.iewLSQFullEvents               252362                       # Number of times the LSQ has become full, causing a stall
system.cpu1.iew.iewSquashCycles                621248                       # Number of cycles IEW is squashing
system.cpu1.iew.iewUnblockCycles               767946                       # Number of cycles IEW is unblocking
system.cpu1.iew.lsq.thread0.blockedLoads            0                       # Number of blocked loads due to partial load-store forwarding
system.cpu1.iew.lsq.thread0.cacheBlocked        12072                       # Number of times an access to memory failed due to the cache being blocked
system.cpu1.iew.lsq.thread0.forwLoads          151778                       # Number of loads that had data forwarded from stores
system.cpu1.iew.lsq.thread0.ignoredResponses         6324                       # Number of memory responses ignored because the instruction is squashed
system.cpu1.iew.lsq.thread0.invAddrLoads            0                       # Number of loads ignored due to an invalid address
system.cpu1.iew.lsq.thread0.invAddrSwpfs            0                       # Number of software prefetches ignored due to an invalid address
system.cpu1.iew.lsq.thread0.memOrderViolation          789                       # Number of memory ordering violations
system.cpu1.iew.lsq.thread0.rescheduledLoads          303                       # Number of loads that were rescheduled
system.cpu1.iew.lsq.thread0.squashedLoads      1210745                       # Number of loads squashed
system.cpu1.iew.lsq.thread0.squashedStores       738249                       # Number of stores squashed
system.cpu1.iew.memOrderViolationEvents           789                       # Number of memory order violations
system.cpu1.iew.predictedNotTakenIncorrect       298919                       # Number of branches that were predicted not taken incorrectly
system.cpu1.iew.predictedTakenIncorrect        346363                       # Number of branches that were predicted taken incorrectly
system.cpu1.iew.wb_consumers                  8478201                       # num instructions consuming a value
system.cpu1.iew.wb_count                     17716055                       # cumulative count of insts written-back
system.cpu1.iew.wb_fanout                    0.778537                       # average fanout of values written-back
system.cpu1.iew.wb_producers                  6600596                       # num instructions producing a value
system.cpu1.iew.wb_rate                      0.150612                       # insts written-back per cycle
system.cpu1.iew.wb_sent                      17737981                       # cumulative count of insts sent to commit
system.cpu1.int_regfile_reads                22766685                       # number of integer regfile reads
system.cpu1.int_regfile_writes               11476712                       # number of integer regfile writes
system.cpu1.ipc                              0.121299                       # IPC: Instructions Per Cycle
system.cpu1.ipc_total                        0.121299                       # IPC: Total IPC of All Threads
system.cpu1.iq.FU_type_0::No_OpClass           524630      2.78%      2.78% # Type of FU issued
system.cpu1.iq.FU_type_0::IntAlu             11714893     62.03%     64.80% # Type of FU issued
system.cpu1.iq.FU_type_0::IntMult                 651      0.00%     64.81% # Type of FU issued
system.cpu1.iq.FU_type_0::IntDiv                   30      0.00%     64.81% # Type of FU issued
system.cpu1.iq.FU_type_0::FloatAdd                  0      0.00%     64.81% # Type of FU issued
system.cpu1.iq.FU_type_0::FloatCmp                  0      0.00%     64.81% # Type of FU issued
system.cpu1.iq.FU_type_0::FloatCvt                  0      0.00%     64.81% # Type of FU issued
system.cpu1.iq.FU_type_0::FloatMult                 0      0.00%     64.81% # Type of FU issued
system.cpu1.iq.FU_type_0::FloatMultAcc              0      0.00%     64.81% # Type of FU issued
system.cpu1.iq.FU_type_0::FloatDiv                  0      0.00%     64.81% # Type of FU issued
system.cpu1.iq.FU_type_0::FloatMisc                 0      0.00%     64.81% # Type of FU issued
system.cpu1.iq.FU_type_0::FloatSqrt                 0      0.00%     64.81% # Type of FU issued
system.cpu1.iq.FU_type_0::SimdAdd                   0      0.00%     64.81% # Type of FU issued
system.cpu1.iq.FU_type_0::SimdAddAcc                0      0.00%     64.81% # Type of FU issued
system.cpu1.iq.FU_type_0::SimdAlu                   0      0.00%     64.81% # Type of FU issued
system.cpu1.iq.FU_type_0::SimdCmp                   0      0.00%     64.81% # Type of FU issued
system.cpu1.iq.FU_type_0::SimdCvt                   0      0.00%     64.81% # Type of FU issued
system.cpu1.iq.FU_type_0::SimdMisc                  0      0.00%     64.81% # Type of FU issued
system.cpu1.iq.FU_type_0::SimdMult                  0      0.00%     64.81% # Type of FU issued
system.cpu1.iq.FU_type_0::SimdMultAcc               0      0.00%     64.81% # Type of FU issued
system.cpu1.iq.FU_type_0::SimdShift                 0      0.00%     64.81% # Type of FU issued
system.cpu1.iq.FU_type_0::SimdShiftAcc              0      0.00%     64.81% # Type of FU issued
system.cpu1.iq.FU_type_0::SimdDiv                   0      0.00%     64.81% # Type of FU issued
system.cpu1.iq.FU_type_0::SimdSqrt                  0      0.00%     64.81% # Type of FU issued
system.cpu1.iq.FU_type_0::SimdFloatAdd              0      0.00%     64.81% # Type of FU issued
system.cpu1.iq.FU_type_0::SimdFloatAlu              0      0.00%     64.81% # Type of FU issued
system.cpu1.iq.FU_type_0::SimdFloatCmp              0      0.00%     64.81% # Type of FU issued
system.cpu1.iq.FU_type_0::SimdFloatCvt              0      0.00%     64.81% # Type of FU issued
system.cpu1.iq.FU_type_0::SimdFloatDiv              0      0.00%     64.81% # Type of FU issued
system.cpu1.iq.FU_type_0::SimdFloatMisc             0      0.00%     64.81% # Type of FU issued
system.cpu1.iq.FU_type_0::SimdFloatMult             0      0.00%     64.81% # Type of FU issued
system.cpu1.iq.FU_type_0::SimdFloatMultAcc            0      0.00%     64.81% # Type of FU issued
system.cpu1.iq.FU_type_0::SimdFloatSqrt             0      0.00%     64.81% # Type of FU issued
system.cpu1.iq.FU_type_0::SimdReduceAdd             0      0.00%     64.81% # Type of FU issued
system.cpu1.iq.FU_type_0::SimdReduceAlu             0      0.00%     64.81% # Type of FU issued
system.cpu1.iq.FU_type_0::SimdReduceCmp             0      0.00%     64.81% # Type of FU issued
system.cpu1.iq.FU_type_0::SimdFloatReduceAdd            0      0.00%     64.81% # Type of FU issued
system.cpu1.iq.FU_type_0::SimdFloatReduceCmp            0      0.00%     64.81% # Type of FU issued
system.cpu1.iq.FU_type_0::SimdAes                   0      0.00%     64.81% # Type of FU issued
system.cpu1.iq.FU_type_0::SimdAesMix                0      0.00%     64.81% # Type of FU issued
system.cpu1.iq.FU_type_0::SimdSha1Hash              0      0.00%     64.81% # Type of FU issued
system.cpu1.iq.FU_type_0::SimdSha1Hash2             0      0.00%     64.81% # Type of FU issued
system.cpu1.iq.FU_type_0::SimdSha256Hash            0      0.00%     64.81% # Type of FU issued
system.cpu1.iq.FU_type_0::SimdSha256Hash2            0      0.00%     64.81% # Type of FU issued
system.cpu1.iq.FU_type_0::SimdShaSigma2             0      0.00%     64.81% # Type of FU issued
system.cpu1.iq.FU_type_0::SimdShaSigma3             0      0.00%     64.81% # Type of FU issued
system.cpu1.iq.FU_type_0::SimdPredAlu               0      0.00%     64.81% # Type of FU issued
system.cpu1.iq.FU_type_0::MemRead             4865212     25.76%     90.57% # Type of FU issued
system.cpu1.iq.FU_type_0::MemWrite            1781801      9.43%    100.00% # Type of FU issued
system.cpu1.iq.FU_type_0::FloatMemRead             24      0.00%    100.00% # Type of FU issued
system.cpu1.iq.FU_type_0::FloatMemWrite            18      0.00%    100.00% # Type of FU issued
system.cpu1.iq.FU_type_0::IprAccess                 0      0.00%    100.00% # Type of FU issued
system.cpu1.iq.FU_type_0::InstPrefetch              0      0.00%    100.00% # Type of FU issued
system.cpu1.iq.FU_type_0::total              18887259                       # Type of FU issued
system.cpu1.iq.fp_alu_accesses                     48                       # Number of floating point alu accesses
system.cpu1.iq.fp_inst_queue_reads                 90                       # Number of floating instruction queue reads
system.cpu1.iq.fp_inst_queue_wakeup_accesses           30                       # Number of floating instruction queue wakeup accesses
system.cpu1.iq.fp_inst_queue_writes                36                       # Number of floating instruction queue writes
system.cpu1.iq.fu_busy_cnt                     131159                       # FU busy when requested
system.cpu1.iq.fu_busy_rate                  0.006944                       # FU busy rate (busy events/executed inst)
system.cpu1.iq.fu_full::No_OpClass                  0      0.00%      0.00% # attempts to use FU when none available
system.cpu1.iq.fu_full::IntAlu                  41501     31.64%     31.64% # attempts to use FU when none available
system.cpu1.iq.fu_full::IntMult                     0      0.00%     31.64% # attempts to use FU when none available
system.cpu1.iq.fu_full::IntDiv                      0      0.00%     31.64% # attempts to use FU when none available
system.cpu1.iq.fu_full::FloatAdd                    0      0.00%     31.64% # attempts to use FU when none available
system.cpu1.iq.fu_full::FloatCmp                    0      0.00%     31.64% # attempts to use FU when none available
system.cpu1.iq.fu_full::FloatCvt                    0      0.00%     31.64% # attempts to use FU when none available
system.cpu1.iq.fu_full::FloatMult                   0      0.00%     31.64% # attempts to use FU when none available
system.cpu1.iq.fu_full::FloatMultAcc                0      0.00%     31.64% # attempts to use FU when none available
system.cpu1.iq.fu_full::FloatDiv                    0      0.00%     31.64% # attempts to use FU when none available
system.cpu1.iq.fu_full::FloatMisc                   0      0.00%     31.64% # attempts to use FU when none available
system.cpu1.iq.fu_full::FloatSqrt                   0      0.00%     31.64% # attempts to use FU when none available
system.cpu1.iq.fu_full::SimdAdd                     0      0.00%     31.64% # attempts to use FU when none available
system.cpu1.iq.fu_full::SimdAddAcc                  0      0.00%     31.64% # attempts to use FU when none available
system.cpu1.iq.fu_full::SimdAlu                     0      0.00%     31.64% # attempts to use FU when none available
system.cpu1.iq.fu_full::SimdCmp                     0      0.00%     31.64% # attempts to use FU when none available
system.cpu1.iq.fu_full::SimdCvt                     0      0.00%     31.64% # attempts to use FU when none available
system.cpu1.iq.fu_full::SimdMisc                    0      0.00%     31.64% # attempts to use FU when none available
system.cpu1.iq.fu_full::SimdMult                    0      0.00%     31.64% # attempts to use FU when none available
system.cpu1.iq.fu_full::SimdMultAcc                 0      0.00%     31.64% # attempts to use FU when none available
system.cpu1.iq.fu_full::SimdShift                   0      0.00%     31.64% # attempts to use FU when none available
system.cpu1.iq.fu_full::SimdShiftAcc                0      0.00%     31.64% # attempts to use FU when none available
system.cpu1.iq.fu_full::SimdDiv                     0      0.00%     31.64% # attempts to use FU when none available
system.cpu1.iq.fu_full::SimdSqrt                    0      0.00%     31.64% # attempts to use FU when none available
system.cpu1.iq.fu_full::SimdFloatAdd                0      0.00%     31.64% # attempts to use FU when none available
system.cpu1.iq.fu_full::SimdFloatAlu                0      0.00%     31.64% # attempts to use FU when none available
system.cpu1.iq.fu_full::SimdFloatCmp                0      0.00%     31.64% # attempts to use FU when none available
system.cpu1.iq.fu_full::SimdFloatCvt                0      0.00%     31.64% # attempts to use FU when none available
system.cpu1.iq.fu_full::SimdFloatDiv                0      0.00%     31.64% # attempts to use FU when none available
system.cpu1.iq.fu_full::SimdFloatMisc               0      0.00%     31.64% # attempts to use FU when none available
system.cpu1.iq.fu_full::SimdFloatMult               0      0.00%     31.64% # attempts to use FU when none available
system.cpu1.iq.fu_full::SimdFloatMultAcc            0      0.00%     31.64% # attempts to use FU when none available
system.cpu1.iq.fu_full::SimdFloatSqrt               0      0.00%     31.64% # attempts to use FU when none available
system.cpu1.iq.fu_full::SimdReduceAdd               0      0.00%     31.64% # attempts to use FU when none available
system.cpu1.iq.fu_full::SimdReduceAlu               0      0.00%     31.64% # attempts to use FU when none available
system.cpu1.iq.fu_full::SimdReduceCmp               0      0.00%     31.64% # attempts to use FU when none available
system.cpu1.iq.fu_full::SimdFloatReduceAdd            0      0.00%     31.64% # attempts to use FU when none available
system.cpu1.iq.fu_full::SimdFloatReduceCmp            0      0.00%     31.64% # attempts to use FU when none available
system.cpu1.iq.fu_full::SimdAes                     0      0.00%     31.64% # attempts to use FU when none available
system.cpu1.iq.fu_full::SimdAesMix                  0      0.00%     31.64% # attempts to use FU when none available
system.cpu1.iq.fu_full::SimdSha1Hash                0      0.00%     31.64% # attempts to use FU when none available
system.cpu1.iq.fu_full::SimdSha1Hash2               0      0.00%     31.64% # attempts to use FU when none available
system.cpu1.iq.fu_full::SimdSha256Hash              0      0.00%     31.64% # attempts to use FU when none available
system.cpu1.iq.fu_full::SimdSha256Hash2             0      0.00%     31.64% # attempts to use FU when none available
system.cpu1.iq.fu_full::SimdShaSigma2               0      0.00%     31.64% # attempts to use FU when none available
system.cpu1.iq.fu_full::SimdShaSigma3               0      0.00%     31.64% # attempts to use FU when none available
system.cpu1.iq.fu_full::SimdPredAlu                 0      0.00%     31.64% # attempts to use FU when none available
[...]
system.cpu1.dcache.WriteReq_mshr_misses::total        82765                       # number of WriteReq MSHR misses
system.cpu1.dcache.WriteReq_mshr_miss_latency::.cpu1.data   6863362124                       # number of WriteReq MSHR miss cycles
system.cpu1.dcache.WriteReq_mshr_miss_latency::total   6863362124                       # number of WriteReq MSHR miss cycles
system.cpu1.dcache.WriteReq_mshr_miss_rate::.cpu1.data     0.064041                       # mshr miss rate for WriteReq accesses
system.cpu1.dcache.WriteReq_mshr_miss_rate::total     0.064041                       # mshr miss rate for WriteReq accesses
system.cpu1.dcache.WriteReq_avg_mshr_miss_latency::.cpu1.data 82925.900127                       # average WriteReq mshr miss latency
system.cpu1.dcache.WriteReq_avg_mshr_miss_latency::total 82925.900127                       # average WriteReq mshr miss latency
system.cpu1.dcache.LoadLockedReq_hits::.cpu1.data         3290                       # number of LoadLockedReq hits
system.cpu1.dcache.LoadLockedReq_hits::total         3290                       # number of LoadLockedReq hits
system.cpu1.dcache.LoadLockedReq_misses::.cpu1.data          926                       # number of LoadLockedReq misses
system.cpu1.dcache.LoadLockedReq_misses::total          926                       # number of LoadLockedReq misses
system.cpu1.dcache.LoadLockedReq_miss_latency::.cpu1.data     23633500                       # number of LoadLockedReq miss cycles
system.cpu1.dcache.LoadLockedReq_miss_latency::total     23633500                       # number of LoadLockedReq miss cycles
system.cpu1.dcache.LoadLockedReq_accesses::.cpu1.data         4216                       # number of LoadLockedReq accesses(hits+misses)
system.cpu1.dcache.LoadLockedReq_accesses::total         4216                       # number of LoadLockedReq accesses(hits+misses)
system.cpu1.dcache.LoadLockedReq_miss_rate::.cpu1.data     0.219639                       # miss rate for LoadLockedReq accesses
system.cpu1.dcache.LoadLockedReq_miss_rate::total     0.219639                       # miss rate for LoadLockedReq accesses
system.cpu1.dcache.LoadLockedReq_avg_miss_latency::.cpu1.data 25522.138229                       # average LoadLockedReq miss latency
system.cpu1.dcache.LoadLockedReq_avg_miss_latency::total 25522.138229                       # average LoadLockedReq miss latency
system.cpu1.dcache.LoadLockedReq_mshr_hits::.cpu1.data          368                       # number of LoadLockedReq MSHR hits
system.cpu1.dcache.LoadLockedReq_mshr_hits::total          368                       # number of LoadLockedReq MSHR hits
system.cpu1.dcache.LoadLockedReq_mshr_misses::.cpu1.data          558                       # number of LoadLockedReq MSHR misses
system.cpu1.dcache.LoadLockedReq_mshr_misses::total          558                       # number of LoadLockedReq MSHR misses
system.cpu1.dcache.LoadLockedReq_mshr_miss_latency::.cpu1.data      3191500                       # number of LoadLockedReq MSHR miss cycles
system.cpu1.dcache.LoadLockedReq_mshr_miss_latency::total      3191500                       # number of LoadLockedReq MSHR miss cycles
system.cpu1.dcache.LoadLockedReq_mshr_miss_rate::.cpu1.data     0.132353                       # mshr miss rate for LoadLockedReq accesses
system.cpu1.dcache.LoadLockedReq_mshr_miss_rate::total     0.132353                       # mshr miss rate for LoadLockedReq accesses
system.cpu1.dcache.LoadLockedReq_avg_mshr_miss_latency::.cpu1.data  5719.534050                       # average LoadLockedReq mshr miss latency
system.cpu1.dcache.LoadLockedReq_avg_mshr_miss_latency::total  5719.534050                       # average LoadLockedReq mshr miss latency
system.cpu1.dcache.StoreCondReq_hits::.cpu1.data         1544                       # number of StoreCondReq hits
system.cpu1.dcache.StoreCondReq_hits::total         1544                       # number of StoreCondReq hits
system.cpu1.dcache.StoreCondReq_misses::.cpu1.data         1446                       # number of StoreCondReq misses
system.cpu1.dcache.StoreCondReq_misses::total         1446                       # number of StoreCondReq misses
system.cpu1.dcache.StoreCondReq_miss_latency::.cpu1.data      9278000                       # number of StoreCondReq miss cycles
system.cpu1.dcache.StoreCondReq_miss_latency::total      9278000                       # number of StoreCondReq miss cycles
system.cpu1.dcache.StoreCondReq_accesses::.cpu1.data         2990                       # number of StoreCondReq accesses(hits+misses)
system.cpu1.dcache.StoreCondReq_accesses::total         2990                       # number of StoreCondReq accesses(hits+misses)
system.cpu1.dcache.StoreCondReq_miss_rate::.cpu1.data     0.483612                       # miss rate for StoreCondReq accesses
system.cpu1.dcache.StoreCondReq_miss_rate::total     0.483612                       # miss rate for StoreCondReq accesses
system.cpu1.dcache.StoreCondReq_avg_miss_latency::.cpu1.data  6416.320885                       # average StoreCondReq miss latency
system.cpu1.dcache.StoreCondReq_avg_miss_latency::total  6416.320885                       # average StoreCondReq miss latency
system.cpu1.dcache.StoreCondReq_mshr_misses::.cpu1.data         1372                       # number of StoreCondReq MSHR misses
system.cpu1.dcache.StoreCondReq_mshr_misses::total         1372                       # number of StoreCondReq MSHR misses
system.cpu1.dcache.StoreCondReq_mshr_miss_latency::.cpu1.data      8111000                       # number of StoreCondReq MSHR miss cycles
system.cpu1.dcache.StoreCondReq_mshr_miss_latency::total      8111000                       # number of StoreCondReq MSHR miss cycles
system.cpu1.dcache.StoreCondReq_mshr_miss_rate::.cpu1.data     0.458863                       # mshr miss rate for StoreCondReq accesses
system.cpu1.dcache.StoreCondReq_mshr_miss_rate::total     0.458863                       # mshr miss rate for StoreCondReq accesses
system.cpu1.dcache.StoreCondReq_avg_mshr_miss_latency::.cpu1.data  5911.807580                       # average StoreCondReq mshr miss latency
system.cpu1.dcache.StoreCondReq_avg_mshr_miss_latency::total  5911.807580                       # average StoreCondReq mshr miss latency
system.cpu1.dcache.StoreCondFailReq_miss_latency::.cpu1.data      1988000                       # number of StoreCondFailReq miss cycles
system.cpu1.dcache.StoreCondFailReq_miss_latency::total      1988000                       # number of StoreCondFailReq miss cycles
system.cpu1.dcache.StoreCondFailReq_avg_miss_latency::.cpu1.data          inf                       # average StoreCondFailReq miss latency
system.cpu1.dcache.StoreCondFailReq_avg_miss_latency::total          inf                       # average StoreCondFailReq miss latency
system.cpu1.dcache.StoreCondFailReq_mshr_miss_latency::.cpu1.data      1783000                       # number of StoreCondFailReq MSHR miss cycles
system.cpu1.dcache.StoreCondFailReq_mshr_miss_latency::total      1783000                       # number of StoreCondFailReq MSHR miss cycles
system.cpu1.dcache.StoreCondFailReq_avg_mshr_miss_latency::.cpu1.data          inf                       # average StoreCondFailReq mshr miss latency
system.cpu1.dcache.StoreCondFailReq_avg_mshr_miss_latency::total          inf                       # average StoreCondFailReq mshr miss latency
system.cpu1.dcache.SwapReq_hits::.cpu1.data         1089                       # number of SwapReq hits
system.cpu1.dcache.SwapReq_hits::total           1089                       # number of SwapReq hits
system.cpu1.dcache.SwapReq_misses::.cpu1.data        11161                       # number of SwapReq misses
system.cpu1.dcache.SwapReq_misses::total        11161                       # number of SwapReq misses
system.cpu1.dcache.SwapReq_miss_latency::.cpu1.data    497716000                       # number of SwapReq miss cycles
system.cpu1.dcache.SwapReq_miss_latency::total    497716000                       # number of SwapReq miss cycles
system.cpu1.dcache.SwapReq_accesses::.cpu1.data        12250                       # number of SwapReq accesses(hits+misses)
system.cpu1.dcache.SwapReq_accesses::total        12250                       # number of SwapReq accesses(hits+misses)
system.cpu1.dcache.SwapReq_miss_rate::.cpu1.data     0.911102                       # miss rate for SwapReq accesses
system.cpu1.dcache.SwapReq_miss_rate::total     0.911102                       # miss rate for SwapReq accesses
system.cpu1.dcache.SwapReq_avg_miss_latency::.cpu1.data 44594.211988                       # average SwapReq miss latency
system.cpu1.dcache.SwapReq_avg_miss_latency::total 44594.211988                       # average SwapReq miss latency
system.cpu1.dcache.SwapReq_mshr_misses::.cpu1.data        11161                       # number of SwapReq MSHR misses
system.cpu1.dcache.SwapReq_mshr_misses::total        11161                       # number of SwapReq MSHR misses
system.cpu1.dcache.SwapReq_mshr_miss_latency::.cpu1.data    486555000                       # number of SwapReq MSHR miss cycles
system.cpu1.dcache.SwapReq_mshr_miss_latency::total    486555000                       # number of SwapReq MSHR miss cycles
system.cpu1.dcache.SwapReq_mshr_miss_rate::.cpu1.data     0.911102                       # mshr miss rate for SwapReq accesses
system.cpu1.dcache.SwapReq_mshr_miss_rate::total     0.911102                       # mshr miss rate for SwapReq accesses
system.cpu1.dcache.SwapReq_avg_mshr_miss_latency::.cpu1.data 43594.211988                       # average SwapReq mshr miss latency
system.cpu1.dcache.SwapReq_avg_mshr_miss_latency::total 43594.211988                       # average SwapReq mshr miss latency
system.cpu1.dcache.tags.pwrStateResidencyTicks::UNDEFINED 401386877000                       # Cumulative time (in ticks) in various power states
system.cpu1.dcache.tags.tagsinuse           31.902718                       # Cycle average of tags in use
system.cpu1.dcache.tags.total_refs           28440585                       # Total number of references to valid blocks.
system.cpu1.dcache.tags.sampled_refs         15039342                       # Sample count of references to valid blocks.
system.cpu1.dcache.tags.avg_refs             1.891079                       # Average number of references to valid blocks.
system.cpu1.dcache.tags.warmup_cycle                0                       # Cycle when the warmup percentage was hit.
system.cpu1.dcache.tags.occ_blocks::.cpu1.data    31.902718                       # Average occupied blocks per requestor
system.cpu1.dcache.tags.occ_percent::.cpu1.data     0.996960                       # Average percentage of cache occupancy
system.cpu1.dcache.tags.occ_percent::total     0.996960                       # Average percentage of cache occupancy
system.cpu1.dcache.tags.occ_task_id_blocks::1024           24                       # Occupied blocks per task id
system.cpu1.dcache.tags.age_task_id_blocks_1024::1           24                       # Occupied blocks per task id
system.cpu1.dcache.tags.occ_task_id_percent::1024     0.750000                       # Percentage of cache occupancy per task id
system.cpu1.dcache.tags.tag_accesses         89614600                       # Number of tag accesses
system.cpu1.dcache.tags.data_accesses        89614600                       # Number of data accesses
system.cpu_clk_domain.clock                       500                       # Clock period in ticks
system.tol2bus.pwrStateResidencyTicks::UNDEFINED 401386877000                       # Cumulative time (in ticks) in various power states
system.tol2bus.trans_dist::ReadResp          59845414                       # Transaction distribution
system.tol2bus.trans_dist::ReadRespWithInvalidate           11                       # Transaction distribution
system.tol2bus.trans_dist::WritebackDirty      1642528                       # Transaction distribution
system.tol2bus.trans_dist::WritebackClean     59275590                       # Transaction distribution
system.tol2bus.trans_dist::CleanEvict       102806511                       # Transaction distribution
system.tol2bus.trans_dist::UpgradeReq           13363                       # Transaction distribution
system.tol2bus.trans_dist::SCUpgradeReq          4661                       # Transaction distribution
system.tol2bus.trans_dist::UpgradeResp          18024                       # Transaction distribution
system.tol2bus.trans_dist::SCUpgradeFailReq          592                       # Transaction distribution
system.tol2bus.trans_dist::UpgradeFailResp          592                       # Transaction distribution
system.tol2bus.trans_dist::ReadExReq           378633                       # Transaction distribution
system.tol2bus.trans_dist::ReadExResp          378633                       # Transaction distribution
system.tol2bus.trans_dist::ReadCleanReq        122755                       # Transaction distribution
system.tol2bus.trans_dist::ReadSharedReq     59722672                       # Transaction distribution
system.tol2bus.pkt_count_system.cpu0.icache.mem_side::system.l2.cpu_side       222687                       # Packet count per connected master and slave (bytes)
system.tol2bus.pkt_count_system.cpu0.dcache.mem_side::system.l2.cpu_side     45124071                       # Packet count per connected master and slave (bytes)
system.tol2bus.pkt_count_system.cpu1.icache.mem_side::system.l2.cpu_side        49014                       # Packet count per connected master and slave (bytes)
system.tol2bus.pkt_count_system.cpu1.dcache.mem_side::system.l2.cpu_side     45103420                       # Packet count per connected master and slave (bytes)
system.tol2bus.pkt_count_system.cpu2.icache.mem_side::system.l2.cpu_side        47748                       # Packet count per connected master and slave (bytes)
system.tol2bus.pkt_count_system.cpu2.dcache.mem_side::system.l2.cpu_side     45013835                       # Packet count per connected master and slave (bytes)
system.tol2bus.pkt_count_system.cpu3.icache.mem_side::system.l2.cpu_side        48813                       # Packet count per connected master and slave (bytes)
system.tol2bus.pkt_count_system.cpu3.dcache.mem_side::system.l2.cpu_side     45011674                       # Packet count per connected master and slave (bytes)
system.tol2bus.pkt_count::total             180621262                       # Packet count per connected master and slave (bytes)
system.tol2bus.pkt_size_system.cpu0.icache.mem_side::system.l2.cpu_side      9501248                       # Cumulative packet size per connected master and slave (bytes)
system.tol2bus.pkt_size_system.cpu0.dcache.mem_side::system.l2.cpu_side   1924685440                       # Cumulative packet size per connected master and slave (bytes)
system.tol2bus.pkt_size_system.cpu1.icache.mem_side::system.l2.cpu_side      2091264                       # Cumulative packet size per connected master and slave (bytes)
system.tol2bus.pkt_size_system.cpu1.dcache.mem_side::system.l2.cpu_side   1923749248                       # Cumulative packet size per connected master and slave (bytes)
system.tol2bus.pkt_size_system.cpu2.icache.mem_side::system.l2.cpu_side      2037248                       # Cumulative packet size per connected master and slave (bytes)
system.tol2bus.pkt_size_system.cpu2.dcache.mem_side::system.l2.cpu_side   1919963008                       # Cumulative packet size per connected master and slave (bytes)
system.tol2bus.pkt_size_system.cpu3.icache.mem_side::system.l2.cpu_side      2082688                       # Cumulative packet size per connected master and slave (bytes)
system.tol2bus.pkt_size_system.cpu3.dcache.mem_side::system.l2.cpu_side   1919831680                       # Cumulative packet size per connected master and slave (bytes)
system.tol2bus.pkt_size::total             7703941824                       # Cumulative packet size per connected master and slave (bytes)
system.tol2bus.snoops                       103588717                       # Total snoops (count)
system.tol2bus.snoopTraffic                  49195328                       # Total snoop traffic (bytes)
system.tol2bus.snoop_fanout::samples        163778105                       # Request fanout histogram
system.tol2bus.snoop_fanout::mean            0.423006                       # Request fanout histogram
system.tol2bus.snoop_fanout::stdev           0.576708                       # Request fanout histogram
system.tol2bus.snoop_fanout::underflows             0      0.00%      0.00% # Request fanout histogram
system.tol2bus.snoop_fanout::0              101208830     61.80%     61.80% # Request fanout histogram
system.tol2bus.snoop_fanout::1               56369744     34.42%     96.21% # Request fanout histogram
system.tol2bus.snoop_fanout::2                5718120      3.49%     99.71% # Request fanout histogram
system.tol2bus.snoop_fanout::3                 452568      0.28%     99.98% # Request fanout histogram
system.tol2bus.snoop_fanout::4                  28843      0.02%    100.00% # Request fanout histogram
system.tol2bus.snoop_fanout::5                      0      0.00%    100.00% # Request fanout histogram
system.tol2bus.snoop_fanout::6                      0      0.00%    100.00% # Request fanout histogram
system.tol2bus.snoop_fanout::7                      0      0.00%    100.00% # Request fanout histogram
system.tol2bus.snoop_fanout::8                      0      0.00%    100.00% # Request fanout histogram
system.tol2bus.snoop_fanout::overflows              0      0.00%    100.00% # Request fanout histogram
system.tol2bus.snoop_fanout::min_value              0                       # Request fanout histogram
system.tol2bus.snoop_fanout::max_value              4                       # Request fanout histogram
system.tol2bus.snoop_fanout::total          163778105                       # Request fanout histogram
system.tol2bus.reqLayer0.occupancy       120406755136                       # Layer occupancy (ticks)
system.tol2bus.reqLayer0.utilization             30.0                       # Layer utilization (%)
system.tol2bus.respLayer5.occupancy       22661935227                       # Layer occupancy (ticks)
system.tol2bus.respLayer5.utilization             5.6                       # Layer utilization (%)
system.tol2bus.respLayer4.occupancy          25061880                       # Layer occupancy (ticks)
system.tol2bus.respLayer4.utilization             0.0                       # Layer utilization (%)
system.tol2bus.respLayer7.occupancy       22662412214                       # Layer occupancy (ticks)
system.tol2bus.respLayer7.utilization             5.6                       # Layer utilization (%)
system.tol2bus.respLayer6.occupancy          25526116                       # Layer occupancy (ticks)
system.tol2bus.respLayer6.utilization             0.0                       # Layer utilization (%)
system.tol2bus.respLayer1.occupancy       22716794614                       # Layer occupancy (ticks)
system.tol2bus.respLayer1.utilization             5.7                       # Layer utilization (%)
system.tol2bus.respLayer0.occupancy         111547504                       # Layer occupancy (ticks)
system.tol2bus.respLayer0.utilization             0.0                       # Layer utilization (%)
system.tol2bus.respLayer3.occupancy       22707981146                       # Layer occupancy (ticks)
system.tol2bus.respLayer3.utilization             5.7                       # Layer utilization (%)
system.tol2bus.respLayer2.occupancy          25788633                       # Layer occupancy (ticks)
system.tol2bus.respLayer2.utilization             0.0                       # Layer utilization (%)

---------- End Simulation Statistics   ----------
