
---------- Begin Simulation Statistics ----------
final_tick                               3501147618000                       # Number of ticks from beginning of simulation (restored from checkpoints and never reset)
host_inst_rate                                  59474                       # Simulator instruction rate (inst/s)
host_mem_usage                                 702196                       # Number of bytes of host memory used
host_op_rate                                    59666                       # Simulator op (including micro ops) rate (op/s)
host_seconds                                 39596.03                       # Real time elapsed on the host
host_tick_rate                               88421687                       # Simulator tick rate (ticks/s)
sim_freq                                 1000000000000                       # Frequency of simulated ticks
sim_insts                                  2354936205                       # Number of instructions simulated
sim_ops                                    2362545120                       # Number of ops (including micro ops) simulated
sim_seconds                                  3.501148                       # Number of seconds simulated
sim_ticks                                3501147618000                       # Number of ticks simulated
system.cpu0.branchPred.BTBCorrect                   0                       # Number of correct BTB predictions (this stat may not work properly.
system.cpu0.branchPred.BTBHitPct            87.343103                       # BTB Hit Percentage
system.cpu0.branchPred.BTBHits              292593703                       # Number of BTB hits
system.cpu0.branchPred.BTBLookups           334993485                       # Number of BTB lookups
system.cpu0.branchPred.RASInCorrect                 0                       # Number of incorrect RAS predictions.
system.cpu0.branchPred.condIncorrect         18880596                       # Number of conditional branches incorrect
system.cpu0.branchPred.condPredicted        462071579                       # Number of conditional branches predicted
system.cpu0.branchPred.indirectHits          39307859                       # Number of indirect target hits.
system.cpu0.branchPred.indirectLookups       39822482                       # Number of indirect predictor lookups.
system.cpu0.branchPred.indirectMisses          514623                       # Number of indirect misses.
system.cpu0.branchPred.lookups              587926433                       # Number of BP lookups
system.cpu0.branchPred.usedRAS                      0                       # Number of times the RAS was used to get a target.
system.cpu0.branchPredindirectMispredicted      3970084                       # Number of mispredicted indirect branches.
system.cpu0.commit.amos                       3801865                       # Number of atomic instructions committed
system.cpu0.commit.branchMispredicts         13448679                       # The number of times a branch was mispredicted
system.cpu0.commit.branches                 555046401                       # Number of branches committed
system.cpu0.commit.bw_lim_events             71951198                       # number cycles where commit BW limit reached
system.cpu0.commit.commitNonSpecStalls       11419491                       # The number of times commit has been forced to stall to communicate backwards
system.cpu0.commit.commitSquashedInsts      105247740                       # The number of squashed insts skipped by commit
system.cpu0.commit.committedInsts          2224866391                       # Number of instructions committed
system.cpu0.commit.committedOps            2228673543                       # Number of ops (including micro ops) committed
system.cpu0.commit.committed_per_cycle::samples   4315620293                       # Number of insts commited each cycle
system.cpu0.commit.committed_per_cycle::mean     0.516420                       # Number of insts commited each cycle
system.cpu0.commit.committed_per_cycle::stdev     1.331391                       # Number of insts commited each cycle
system.cpu0.commit.committed_per_cycle::underflows            0      0.00%      0.00% # Number of insts commited each cycle
system.cpu0.commit.committed_per_cycle::0   3300925389     76.49%     76.49% # Number of insts commited each cycle
system.cpu0.commit.committed_per_cycle::1    575859733     13.34%     89.83% # Number of insts commited each cycle
system.cpu0.commit.committed_per_cycle::2    147748054      3.42%     93.26% # Number of insts commited each cycle
system.cpu0.commit.committed_per_cycle::3    153816556      3.56%     96.82% # Number of insts commited each cycle
system.cpu0.commit.committed_per_cycle::4     32697032      0.76%     97.58% # Number of insts commited each cycle
system.cpu0.commit.committed_per_cycle::5     14301281      0.33%     97.91% # Number of insts commited each cycle
system.cpu0.commit.committed_per_cycle::6     10283433      0.24%     98.15% # Number of insts commited each cycle
system.cpu0.commit.committed_per_cycle::7      8037617      0.19%     98.33% # Number of insts commited each cycle
system.cpu0.commit.committed_per_cycle::8     71951198      1.67%    100.00% # Number of insts commited each cycle
system.cpu0.commit.committed_per_cycle::overflows            0      0.00%    100.00% # Number of insts commited each cycle
system.cpu0.commit.committed_per_cycle::min_value            0                       # Number of insts commited each cycle
system.cpu0.commit.committed_per_cycle::max_value            8                       # Number of insts commited each cycle
system.cpu0.commit.committed_per_cycle::total   4315620293                       # Number of insts commited each cycle
system.cpu0.commit.fp_insts                        50                       # Number of committed floating point instructions.
system.cpu0.commit.function_calls            44164752                       # Number of function calls committed.
system.cpu0.commit.int_insts               2150968029                       # Number of committed integer instructions.
system.cpu0.commit.loads                    691560363                       # Number of loads committed
system.cpu0.commit.membars                    7608881                       # Number of memory barriers committed
system.cpu0.commit.op_class_0::No_OpClass      7608887      0.34%      0.34% # Class of committed instruction
system.cpu0.commit.op_class_0::IntAlu      1238812572     55.59%     55.93% # Class of committed instruction
system.cpu0.commit.op_class_0::IntMult       18316825      0.82%     56.75% # Class of committed instruction
system.cpu0.commit.op_class_0::IntDiv         3801411      0.17%     56.92% # Class of committed instruction
system.cpu0.commit.op_class_0::FloatAdd             0      0.00%     56.92% # Class of committed instruction
system.cpu0.commit.op_class_0::FloatCmp             4      0.00%     56.92% # Class of committed instruction
system.cpu0.commit.op_class_0::FloatCvt            12      0.00%     56.92% # Class of committed instruction
system.cpu0.commit.op_class_0::FloatMult            0      0.00%     56.92% # Class of committed instruction
system.cpu0.commit.op_class_0::FloatMultAcc            0      0.00%     56.92% # Class of committed instruction
system.cpu0.commit.op_class_0::FloatDiv             2      0.00%     56.92% # Class of committed instruction
system.cpu0.commit.op_class_0::FloatMisc            4      0.00%     56.92% # Class of committed instruction
system.cpu0.commit.op_class_0::FloatSqrt            0      0.00%     56.92% # Class of committed instruction
system.cpu0.commit.op_class_0::SimdAdd              0      0.00%     56.92% # Class of committed instruction
system.cpu0.commit.op_class_0::SimdAddAcc            0      0.00%     56.92% # Class of committed instruction
system.cpu0.commit.op_class_0::SimdAlu              0      0.00%     56.92% # Class of committed instruction
system.cpu0.commit.op_class_0::SimdCmp              0      0.00%     56.92% # Class of committed instruction
system.cpu0.commit.op_class_0::SimdCvt              0      0.00%     56.92% # Class of committed instruction
system.cpu0.commit.op_class_0::SimdMisc             0      0.00%     56.92% # Class of committed instruction
system.cpu0.commit.op_class_0::SimdMult             0      0.00%     56.92% # Class of committed instruction
system.cpu0.commit.op_class_0::SimdMultAcc            0      0.00%     56.92% # Class of committed instruction
system.cpu0.commit.op_class_0::SimdShift            0      0.00%     56.92% # Class of committed instruction
system.cpu0.commit.op_class_0::SimdShiftAcc            0      0.00%     56.92% # Class of committed instruction
system.cpu0.commit.op_class_0::SimdDiv              0      0.00%     56.92% # Class of committed instruction
system.cpu0.commit.op_class_0::SimdSqrt             0      0.00%     56.92% # Class of committed instruction
system.cpu0.commit.op_class_0::SimdFloatAdd            0      0.00%     56.92% # Class of committed instruction
system.cpu0.commit.op_class_0::SimdFloatAlu            0      0.00%     56.92% # Class of committed instruction
system.cpu0.commit.op_class_0::SimdFloatCmp            0      0.00%     56.92% # Class of committed instruction
system.cpu0.commit.op_class_0::SimdFloatCvt            0      0.00%     56.92% # Class of committed instruction
system.cpu0.commit.op_class_0::SimdFloatDiv            0      0.00%     56.92% # Class of committed instruction
system.cpu0.commit.op_class_0::SimdFloatMisc            0      0.00%     56.92% # Class of committed instruction
system.cpu0.commit.op_class_0::SimdFloatMult            0      0.00%     56.92% # Class of committed instruction
system.cpu0.commit.op_class_0::SimdFloatMultAcc            0      0.00%     56.92% # Class of committed instruction
system.cpu0.commit.op_class_0::SimdFloatSqrt            0      0.00%     56.92% # Class of committed instruction
system.cpu0.commit.op_class_0::SimdReduceAdd            0      0.00%     56.92% # Class of committed instruction
system.cpu0.commit.op_class_0::SimdReduceAlu            0      0.00%     56.92% # Class of committed instruction
system.cpu0.commit.op_class_0::SimdReduceCmp            0      0.00%     56.92% # Class of committed instruction
system.cpu0.commit.op_class_0::SimdFloatReduceAdd            0      0.00%     56.92% # Class of committed instruction
system.cpu0.commit.op_class_0::SimdFloatReduceCmp            0      0.00%     56.92% # Class of committed instruction
system.cpu0.commit.op_class_0::SimdAes              0      0.00%     56.92% # Class of committed instruction
system.cpu0.commit.op_class_0::SimdAesMix            0      0.00%     56.92% # Class of committed instruction
system.cpu0.commit.op_class_0::SimdSha1Hash            0      0.00%     56.92% # Class of committed instruction
system.cpu0.commit.op_class_0::SimdSha1Hash2            0      0.00%     56.92% # Class of committed instruction
system.cpu0.commit.op_class_0::SimdSha256Hash            0      0.00%     56.92% # Class of committed instruction
system.cpu0.commit.op_class_0::SimdSha256Hash2            0      0.00%     56.92% # Class of committed instruction
system.cpu0.commit.op_class_0::SimdShaSigma2            0      0.00%     56.92% # Class of committed instruction
system.cpu0.commit.op_class_0::SimdShaSigma3            0      0.00%     56.92% # Class of committed instruction
system.cpu0.commit.op_class_0::SimdPredAlu            0      0.00%     56.92% # Class of committed instruction
system.cpu0.commit.op_class_0::MemRead      695362220     31.20%     88.12% # Class of committed instruction
system.cpu0.commit.op_class_0::MemWrite     264771578     11.88%    100.00% # Class of committed instruction
system.cpu0.commit.op_class_0::FloatMemRead            8      0.00%    100.00% # Class of committed instruction
system.cpu0.commit.op_class_0::FloatMemWrite           20      0.00%    100.00% # Class of committed instruction
system.cpu0.commit.op_class_0::IprAccess            0      0.00%    100.00% # Class of committed instruction
system.cpu0.commit.op_class_0::InstPrefetch            0      0.00%    100.00% # Class of committed instruction
system.cpu0.commit.op_class_0::total       2228673543                       # Class of committed instruction
system.cpu0.commit.refs                     960133826                       # Number of memory references committed
system.cpu0.commit.swp_count                        0                       # Number of s/w prefetches committed
system.cpu0.commit.vec_insts                        0                       # Number of committed Vector instructions.
system.cpu0.committedInsts                 2224866391                       # Number of Instructions Simulated
system.cpu0.committedOps                   2228673543                       # Number of Ops (including micro ops) Simulated
system.cpu0.cpi                              3.143688                       # CPI: Cycles Per Instruction
system.cpu0.cpi_total                        3.143688                       # CPI: Total CPI of All Threads
system.cpu0.decode.BlockedCycles            695838518                       # Number of cycles decode is blocked
system.cpu0.decode.BranchMispred              5456826                       # Number of times decode detected a branch misprediction
system.cpu0.decode.BranchResolved           291234565                       # Number of times decode resolved a branch
system.cpu0.decode.DecodedInsts            2368303411                       # Number of instructions handled by decode
system.cpu0.decode.IdleCycles              1998933228                       # Number of cycles decode is idle
system.cpu0.decode.RunCycles               1616382109                       # Number of cycles decode is running
system.cpu0.decode.SquashCycles              13468639                       # Number of cycles decode is squashing
system.cpu0.decode.SquashedInsts             18148791                       # Number of squashed instructions handled by decode
system.cpu0.decode.UnblockCycles             12067177                       # Number of cycles decode is unblocking
system.cpu0.dtb.accesses                            0                       # DTB accesses
system.cpu0.dtb.hits                                0                       # DTB hits
system.cpu0.dtb.misses                              0                       # DTB misses
system.cpu0.dtb.read_accesses                       0                       # DTB read accesses
system.cpu0.dtb.read_hits                           0                       # DTB read hits
system.cpu0.dtb.read_misses                         0                       # DTB read misses
system.cpu0.dtb.write_accesses                      0                       # DTB write accesses
system.cpu0.dtb.write_hits                          0                       # DTB write hits
system.cpu0.dtb.write_misses                        0                       # DTB write misses
system.cpu0.fetch.Branches                  587926433                       # Number of branches that fetch encountered
system.cpu0.fetch.CacheLines                422798115                       # Number of cache lines fetched
system.cpu0.fetch.Cycles                   2349807387                       # Number of cycles fetch has run and was not squashing or blocked
system.cpu0.fetch.IcacheSquashes              5831349                       # Number of outstanding Icache misses that were squashed
system.cpu0.fetch.IcacheWaitRetryStallCycles           61                       # Number of stall cycles due to full MSHR
system.cpu0.fetch.Insts                    2396250669                       # Number of instructions fetch has processed
system.cpu0.fetch.MiscStallCycles                  99                       # Number of cycles fetch has spent waiting on interrupts, or bad addresses, or out of MSHRs
system.cpu0.fetch.PendingTrapStallCycles          565                       # Number of stall cycles due to pending traps
system.cpu0.fetch.SquashCycles               37801284                       # Number of cycles fetch has spent squashing
system.cpu0.fetch.branchRate                 0.084058                       # Number of branch fetches per cycle
system.cpu0.fetch.icacheStallCycles        1967980917                       # Number of cycles fetch is stalled on an Icache miss
system.cpu0.fetch.predictedBranches         331901562                       # Number of branches that fetch has predicted taken
system.cpu0.fetch.rate                       0.342601                       # Number of inst fetches per cycle
system.cpu0.fetch.rateDist::samples        4336689671                       # Number of instructions fetched each cycle (Total)
system.cpu0.fetch.rateDist::mean             0.553431                       # Number of instructions fetched each cycle (Total)
system.cpu0.fetch.rateDist::stdev            0.871367                       # Number of instructions fetched each cycle (Total)
system.cpu0.fetch.rateDist::underflows              0      0.00%      0.00% # Number of instructions fetched each cycle (Total)
system.cpu0.fetch.rateDist::0              2648525333     61.07%     61.07% # Number of instructions fetched each cycle (Total)
system.cpu0.fetch.rateDist::1              1252025078     28.87%     89.94% # Number of instructions fetched each cycle (Total)
system.cpu0.fetch.rateDist::2               229806321      5.30%     95.24% # Number of instructions fetched each cycle (Total)
system.cpu0.fetch.rateDist::3               167228921      3.86%     99.10% # Number of instructions fetched each cycle (Total)
system.cpu0.fetch.rateDist::4                24255066      0.56%     99.66% # Number of instructions fetched each cycle (Total)
system.cpu0.fetch.rateDist::5                 7003567      0.16%     99.82% # Number of instructions fetched each cycle (Total)
system.cpu0.fetch.rateDist::6                  227194      0.01%     99.82% # Number of instructions fetched each cycle (Total)
system.cpu0.fetch.rateDist::7                 7612888      0.18%    100.00% # Number of instructions fetched each cycle (Total)
system.cpu0.fetch.rateDist::8                    5303      0.00%    100.00% # Number of instructions fetched each cycle (Total)
system.cpu0.fetch.rateDist::overflows               0      0.00%    100.00% # Number of instructions fetched each cycle (Total)
system.cpu0.fetch.rateDist::min_value               0                       # Number of instructions fetched each cycle (Total)
system.cpu0.fetch.rateDist::max_value               8                       # Number of instructions fetched each cycle (Total)
system.cpu0.fetch.rateDist::total          4336689671                       # Number of instructions fetched each cycle (Total)
system.cpu0.fp_regfile_reads                       44                       # number of floating regfile reads
system.cpu0.fp_regfile_writes                      22                       # number of floating regfile writes
system.cpu0.idleCycles                     2657595714                       # Total number of cycles that the CPU has spent unscheduled due to idling
system.cpu0.iew.branchMispredicts            13644637                       # Number of branch mispredicts detected at execute
system.cpu0.iew.exec_branches               568436396                       # Number of branches executed
system.cpu0.iew.exec_nop                            0                       # number of nop insts executed
system.cpu0.iew.exec_rate                    0.330736                       # Inst execution rate
system.cpu0.iew.exec_refs                  1008609689                       # number of memory reference insts executed
system.cpu0.iew.exec_stores                 279892156                       # Number of stores executed
system.cpu0.iew.exec_swp                            0                       # number of swp insts executed
system.cpu0.iew.iewBlockCycles              567648827                       # Number of cycles IEW is blocking
system.cpu0.iew.iewDispLoadInsts            730365294                       # Number of dispatched load instructions
system.cpu0.iew.iewDispNonSpecInsts           3810927                       # Number of dispatched non-speculative instructions
system.cpu0.iew.iewDispSquashedInsts          6659690                       # Number of squashed instructions skipped by dispatch
system.cpu0.iew.iewDispStoreInsts           282211549                       # Number of dispatched store instructions
system.cpu0.iew.iewDispatchedInsts         2333884412                       # Number of instructions dispatched to IQ
system.cpu0.iew.iewExecLoadInsts            728717533                       # Number of load instructions executed
system.cpu0.iew.iewExecSquashedInsts         10263929                       # Number of squashed instructions skipped in execute
system.cpu0.iew.iewExecutedInsts           2313264070                       # Number of executed instructions
system.cpu0.iew.iewIQFullEvents               3733666                       # Number of times the IQ has become full, causing a stall
system.cpu0.iew.iewIdleCycles                       0                       # Number of cycles IEW is idle
system.cpu0.iew.iewLSQFullEvents             14768124                       # Number of times the LSQ has become full, causing a stall
system.cpu0.iew.iewSquashCycles              13468639                       # Number of cycles IEW is squashing
system.cpu0.iew.iewUnblockCycles             22576993                       # Number of cycles IEW is unblocking
system.cpu0.iew.lsq.thread0.blockedLoads            0                       # Number of blocked loads due to partial load-store forwarding
system.cpu0.iew.lsq.thread0.cacheBlocked       214360                       # Number of times an access to memory failed due to the cache being blocked
system.cpu0.iew.lsq.thread0.forwLoads        39704870                       # Number of loads that had data forwarded from stores
system.cpu0.iew.lsq.thread0.ignoredResponses        62824                       # Number of memory responses ignored because the instruction is squashed
system.cpu0.iew.lsq.thread0.invAddrLoads            0                       # Number of loads ignored due to an invalid address
system.cpu0.iew.lsq.thread0.invAddrSwpfs            0                       # Number of software prefetches ignored due to an invalid address
system.cpu0.iew.lsq.thread0.memOrderViolation        19254                       # Number of memory ordering violations
system.cpu0.iew.lsq.thread0.rescheduledLoads      9111022                       # Number of loads that were rescheduled
system.cpu0.iew.lsq.thread0.squashedLoads     38804931                       # Number of loads squashed
system.cpu0.iew.lsq.thread0.squashedStores     13638086                       # Number of stores squashed
system.cpu0.iew.memOrderViolationEvents         19254                       # Number of memory order violations
system.cpu0.iew.predictedNotTakenIncorrect      2005249                       # Number of branches that were predicted not taken incorrectly
system.cpu0.iew.predictedTakenIncorrect      11639388                       # Number of branches that were predicted taken incorrectly
system.cpu0.iew.wb_consumers               1023936133                       # num instructions consuming a value
system.cpu0.iew.wb_count                   2296317111                       # cumulative count of insts written-back
system.cpu0.iew.wb_fanout                    0.853840                       # average fanout of values written-back
system.cpu0.iew.wb_producers                874277830                       # num instructions producing a value
system.cpu0.iew.wb_rate                      0.328313                       # insts written-back per cycle
system.cpu0.iew.wb_sent                    2296461405                       # cumulative count of insts sent to commit
system.cpu0.int_regfile_reads              2828701747                       # number of integer regfile reads
system.cpu0.int_regfile_writes             1465192092                       # number of integer regfile writes
system.cpu0.ipc                              0.318098                       # IPC: Instructions Per Cycle
system.cpu0.ipc_total                        0.318098                       # IPC: Total IPC of All Threads
system.cpu0.iq.FU_type_0::No_OpClass          7611907      0.33%      0.33% # Type of FU issued
system.cpu0.iq.FU_type_0::IntAlu           1280195016     55.10%     55.42% # Type of FU issued
system.cpu0.iq.FU_type_0::IntMult            18339499      0.79%     56.21% # Type of FU issued
system.cpu0.iq.FU_type_0::IntDiv              3802508      0.16%     56.38% # Type of FU issued
system.cpu0.iq.FU_type_0::FloatAdd                  0      0.00%     56.38% # Type of FU issued
system.cpu0.iq.FU_type_0::FloatCmp                  4      0.00%     56.38% # Type of FU issued
system.cpu0.iq.FU_type_0::FloatCvt                 12      0.00%     56.38% # Type of FU issued
system.cpu0.iq.FU_type_0::FloatMult                 0      0.00%     56.38% # Type of FU issued
system.cpu0.iq.FU_type_0::FloatMultAcc              0      0.00%     56.38% # Type of FU issued
system.cpu0.iq.FU_type_0::FloatDiv                  2      0.00%     56.38% # Type of FU issued
system.cpu0.iq.FU_type_0::FloatMisc                 4      0.00%     56.38% # Type of FU issued
system.cpu0.iq.FU_type_0::FloatSqrt                 0      0.00%     56.38% # Type of FU issued
system.cpu0.iq.FU_type_0::SimdAdd                   0      0.00%     56.38% # Type of FU issued
system.cpu0.iq.FU_type_0::SimdAddAcc                0      0.00%     56.38% # Type of FU issued
system.cpu0.iq.FU_type_0::SimdAlu                   0      0.00%     56.38% # Type of FU issued
system.cpu0.iq.FU_type_0::SimdCmp                   0      0.00%     56.38% # Type of FU issued
system.cpu0.iq.FU_type_0::SimdCvt                   0      0.00%     56.38% # Type of FU issued
system.cpu0.iq.FU_type_0::SimdMisc                  0      0.00%     56.38% # Type of FU issued
system.cpu0.iq.FU_type_0::SimdMult                  0      0.00%     56.38% # Type of FU issued
system.cpu0.iq.FU_type_0::SimdMultAcc               0      0.00%     56.38% # Type of FU issued
system.cpu0.iq.FU_type_0::SimdShift                 0      0.00%     56.38% # Type of FU issued
system.cpu0.iq.FU_type_0::SimdShiftAcc              0      0.00%     56.38% # Type of FU issued
system.cpu0.iq.FU_type_0::SimdDiv                   0      0.00%     56.38% # Type of FU issued
system.cpu0.iq.FU_type_0::SimdSqrt                  0      0.00%     56.38% # Type of FU issued
system.cpu0.iq.FU_type_0::SimdFloatAdd              0      0.00%     56.38% # Type of FU issued
system.cpu0.iq.FU_type_0::SimdFloatAlu              0      0.00%     56.38% # Type of FU issued
system.cpu0.iq.FU_type_0::SimdFloatCmp              0      0.00%     56.38% # Type of FU issued
system.cpu0.iq.FU_type_0::SimdFloatCvt              0      0.00%     56.38% # Type of FU issued
system.cpu0.iq.FU_type_0::SimdFloatDiv              0      0.00%     56.38% # Type of FU issued
system.cpu0.iq.FU_type_0::SimdFloatMisc             0      0.00%     56.38% # Type of FU issued
system.cpu0.iq.FU_type_0::SimdFloatMult             0      0.00%     56.38% # Type of FU issued
system.cpu0.iq.FU_type_0::SimdFloatMultAcc            0      0.00%     56.38% # Type of FU issued
system.cpu0.iq.FU_type_0::SimdFloatSqrt             0      0.00%     56.38% # Type of FU issued
system.cpu0.iq.FU_type_0::SimdReduceAdd             0      0.00%     56.38% # Type of FU issued
system.cpu0.iq.FU_type_0::SimdReduceAlu             0      0.00%     56.38% # Type of FU issued
system.cpu0.iq.FU_type_0::SimdReduceCmp             0      0.00%     56.38% # Type of FU issued
system.cpu0.iq.FU_type_0::SimdFloatReduceAdd            0      0.00%     56.38% # Type of FU issued
system.cpu0.iq.FU_type_0::SimdFloatReduceCmp            0      0.00%     56.38% # Type of FU issued
system.cpu0.iq.FU_type_0::SimdAes                   0      0.00%     56.38% # Type of FU issued
system.cpu0.iq.FU_type_0::SimdAesMix                0      0.00%     56.38% # Type of FU issued
system.cpu0.iq.FU_type_0::SimdSha1Hash              0      0.00%     56.38% # Type of FU issued
system.cpu0.iq.FU_type_0::SimdSha1Hash2             0      0.00%     56.38% # Type of FU issued
system.cpu0.iq.FU_type_0::SimdSha256Hash            0      0.00%     56.38% # Type of FU issued
system.cpu0.iq.FU_type_0::SimdSha256Hash2            0      0.00%     56.38% # Type of FU issued
system.cpu0.iq.FU_type_0::SimdShaSigma2             0      0.00%     56.38% # Type of FU issued
system.cpu0.iq.FU_type_0::SimdShaSigma3             0      0.00%     56.38% # Type of FU issued
system.cpu0.iq.FU_type_0::SimdPredAlu               0      0.00%     56.38% # Type of FU issued
system.cpu0.iq.FU_type_0::MemRead           737103316     31.72%     88.10% # Type of FU issued
system.cpu0.iq.FU_type_0::MemWrite          276475704     11.90%    100.00% # Type of FU issued
system.cpu0.iq.FU_type_0::FloatMemRead              8      0.00%    100.00% # Type of FU issued
system.cpu0.iq.FU_type_0::FloatMemWrite            20      0.00%    100.00% # Type of FU issued
system.cpu0.iq.FU_type_0::IprAccess                 0      0.00%    100.00% # Type of FU issued
system.cpu0.iq.FU_type_0::InstPrefetch              0      0.00%    100.00% # Type of FU issued
system.cpu0.iq.FU_type_0::total            2323528000                       # Type of FU issued
system.cpu0.iq.fp_alu_accesses                     52                       # Number of floating point alu accesses
system.cpu0.iq.fp_inst_queue_reads                102                       # Number of floating instruction queue reads
system.cpu0.iq.fp_inst_queue_wakeup_accesses           50                       # Number of floating instruction queue wakeup accesses
system.cpu0.iq.fp_inst_queue_writes                50                       # Number of floating instruction queue writes
system.cpu0.iq.fu_busy_cnt                    8274636                       # FU busy when requested
system.cpu0.iq.fu_busy_rate                  0.003561                       # FU busy rate (busy events/executed inst)
system.cpu0.iq.fu_full::No_OpClass                  0      0.00%      0.00% # attempts to use FU when none available
system.cpu0.iq.fu_full::IntAlu                 838243     10.13%     10.13% # attempts to use FU when none available
system.cpu0.iq.fu_full::IntMult                     0      0.00%     10.13% # attempts to use FU when none available
system.cpu0.iq.fu_full::IntDiv                      0      0.00%     10.13% # attempts to use FU when none available
system.cpu0.iq.fu_full::FloatAdd                    0      0.00%     10.13% # attempts to use FU when none available
system.cpu0.iq.fu_full::FloatCmp                    0      0.00%     10.13% # attempts to use FU when none available
system.cpu0.iq.fu_full::FloatCvt                    0      0.00%     10.13% # attempts to use FU when none available
system.cpu0.iq.fu_full::FloatMult                   0      0.00%     10.13% # attempts to use FU when none available
system.cpu0.iq.fu_full::FloatMultAcc                0      0.00%     10.13% # attempts to use FU when none available
system.cpu0.iq.fu_full::FloatDiv                    0      0.00%     10.13% # attempts to use FU when none available
system.cpu0.iq.fu_full::FloatMisc                   0      0.00%     10.13% # attempts to use FU when none available
system.cpu0.iq.fu_full::FloatSqrt                   0      0.00%     10.13% # attempts to use FU when none available
system.cpu0.iq.fu_full::SimdAdd                     0      0.00%     10.13% # attempts to use FU when none available
system.cpu0.iq.fu_full::SimdAddAcc                  0      0.00%     10.13% # attempts to use FU when none available
system.cpu0.iq.fu_full::SimdAlu                     0      0.00%     10.13% # attempts to use FU when none available
system.cpu0.iq.fu_full::SimdCmp                     0      0.00%     10.13% # attempts to use FU when none available
system.cpu0.iq.fu_full::SimdCvt                     0      0.00%     10.13% # attempts to use FU when none available
system.cpu0.iq.fu_full::SimdMisc                    0      0.00%     10.13% # attempts to use FU when none available
system.cpu0.iq.fu_full::SimdMult                    0      0.00%     10.13% # attempts to use FU when none available
system.cpu0.iq.fu_full::SimdMultAcc                 0      0.00%     10.13% # attempts to use FU when none available
system.cpu0.iq.fu_full::SimdShift                   0      0.00%     10.13% # attempts to use FU when none available
system.cpu0.iq.fu_full::SimdShiftAcc                0      0.00%     10.13% # attempts to use FU when none available
system.cpu0.iq.fu_full::SimdDiv                     0      0.00%     10.13% # attempts to use FU when none available
system.cpu0.iq.fu_full::SimdSqrt                    0      0.00%     10.13% # attempts to use FU when none available
system.cpu0.iq.fu_full::SimdFloatAdd                0      0.00%     10.13% # attempts to use FU when none available
system.cpu0.iq.fu_full::SimdFloatAlu                0      0.00%     10.13% # attempts to use FU when none available
system.cpu0.iq.fu_full::SimdFloatCmp                0      0.00%     10.13% # attempts to use FU when none available
system.cpu0.iq.fu_full::SimdFloatCvt                0      0.00%     10.13% # attempts to use FU when none available
system.cpu0.iq.fu_full::SimdFloatDiv                0      0.00%     10.13% # attempts to use FU when none available
system.cpu0.iq.fu_full::SimdFloatMisc               0      0.00%     10.13% # attempts to use FU when none available
system.cpu0.iq.fu_full::SimdFloatMult               0      0.00%     10.13% # attempts to use FU when none available
system.cpu0.iq.fu_full::SimdFloatMultAcc            0      0.00%     10.13% # attempts to use FU when none available
system.cpu0.iq.fu_full::SimdFloatSqrt               0      0.00%     10.13% # attempts to use FU when none available
system.cpu0.iq.fu_full::SimdReduceAdd               0      0.00%     10.13% # attempts to use FU when none available
system.cpu0.iq.fu_full::SimdReduceAlu               0      0.00%     10.13% # attempts to use FU when none available
system.cpu0.iq.fu_full::SimdReduceCmp               0      0.00%     10.13% # attempts to use FU when none available
system.cpu0.iq.fu_full::SimdFloatReduceAdd            0      0.00%     10.13% # attempts to use FU when none available
system.cpu0.iq.fu_full::SimdFloatReduceCmp            0      0.00%     10.13% # attempts to use FU when none available
system.cpu0.iq.fu_full::SimdAes                     0      0.00%     10.13% # attempts to use FU when none available
system.cpu0.iq.fu_full::SimdAesMix                  0      0.00%     10.13% # attempts to use FU when none available
system.cpu0.iq.fu_full::SimdSha1Hash                0      0.00%     10.13% # attempts to use FU when none available
system.cpu0.iq.fu_full::SimdSha1Hash2               0      0.00%     10.13% # attempts to use FU when none available
system.cpu0.iq.fu_full::SimdSha256Hash              0      0.00%     10.13% # attempts to use FU when none available
system.cpu0.iq.fu_full::SimdSha256Hash2             0      0.00%     10.13% # attempts to use FU when none available
system.cpu0.iq.fu_full::SimdShaSigma2               0      0.00%     10.13% # attempts to use FU when none available
system.cpu0.iq.fu_full::SimdShaSigma3               0      0.00%     10.13% # attempts to use FU when none available
system.cpu0.iq.fu_full::SimdPredAlu                 0      0.00%     10.13% # attempts to use FU when none available
system.cpu0.iq.fu_full::MemRead               6952085     84.02%     94.15% # attempts to use FU when none available
system.cpu0.iq.fu_full::MemWrite               484306      5.85%    100.00% # attempts to use FU when none available
system.cpu0.iq.fu_full::FloatMemRead                0      0.00%    100.00% # attempts to use FU when none available
system.cpu0.iq.fu_full::FloatMemWrite               2      0.00%    100.00% # attempts to use FU when none available
system.cpu0.iq.fu_full::IprAccess                   0      0.00%    100.00% # attempts to use FU when none available
system.cpu0.iq.fu_full::InstPrefetch                0      0.00%    100.00% # attempts to use FU when none available
system.cpu0.iq.int_alu_accesses            2324190677                       # Number of integer alu accesses
system.cpu0.iq.int_inst_queue_reads        8992329588                       # Number of integer instruction queue reads
system.cpu0.iq.int_inst_queue_wakeup_accesses   2296317061                       # Number of integer instruction queue wakeup accesses
system.cpu0.iq.int_inst_queue_writes       2439113003                       # Number of integer instruction queue writes
system.cpu0.iq.iqInstsAdded                2322464180                       # Number of instructions added to the IQ (excludes non-spec)
system.cpu0.iq.iqInstsIssued               2323528000                       # Number of instructions issued
system.cpu0.iq.iqNonSpecInstsAdded           11420232                       # Number of non-speculative instructions added to the IQ
system.cpu0.iq.iqSquashedInstsExamined      105210865                       # Number of squashed instructions iterated over during squash; mainly for profiling
system.cpu0.iq.iqSquashedInstsIssued           309384                       # Number of squashed instructions issued
system.cpu0.iq.iqSquashedNonSpecRemoved           741                       # Number of squashed non-spec instructions that were removed
system.cpu0.iq.iqSquashedOperandsExamined     41321163                       # Number of squashed operands that are examined and possibly removed from graph
system.cpu0.iq.issued_per_cycle::samples   4336689671                       # Number of insts issued each cycle
system.cpu0.iq.issued_per_cycle::mean        0.535784                       # Number of insts issued each cycle
system.cpu0.iq.issued_per_cycle::stdev       0.810397                       # Number of insts issued each cycle
system.cpu0.iq.issued_per_cycle::underflows            0      0.00%      0.00% # Number of insts issued each cycle
system.cpu0.iq.issued_per_cycle::0         2664729760     61.45%     61.45% # Number of insts issued each cycle
system.cpu0.iq.issued_per_cycle::1         1183410643     27.29%     88.73% # Number of insts issued each cycle
system.cpu0.iq.issued_per_cycle::2          376811616      8.69%     97.42% # Number of insts issued each cycle
system.cpu0.iq.issued_per_cycle::3           73422539      1.69%     99.12% # Number of insts issued each cycle
system.cpu0.iq.issued_per_cycle::4           29558044      0.68%     99.80% # Number of insts issued each cycle
system.cpu0.iq.issued_per_cycle::5            5888244      0.14%     99.93% # Number of insts issued each cycle
system.cpu0.iq.issued_per_cycle::6            1882806      0.04%     99.98% # Number of insts issued each cycle
system.cpu0.iq.issued_per_cycle::7             631876      0.01%     99.99% # Number of insts issued each cycle
system.cpu0.iq.issued_per_cycle::8             354143      0.01%    100.00% # Number of insts issued each cycle
system.cpu0.iq.issued_per_cycle::overflows            0      0.00%    100.00% # Number of insts issued each cycle
system.cpu0.iq.issued_per_cycle::min_value            0                       # Number of insts issued each cycle
system.cpu0.iq.issued_per_cycle::max_value            8                       # Number of insts issued each cycle
system.cpu0.iq.issued_per_cycle::total     4336689671                       # Number of insts issued each cycle
system.cpu0.iq.rate                          0.332204                       # Inst issue rate
system.cpu0.iq.vec_alu_accesses                     0                       # Number of vector alu accesses
system.cpu0.iq.vec_inst_queue_reads                 0                       # Number of vector instruction queue reads
system.cpu0.iq.vec_inst_queue_wakeup_accesses            0                       # Number of vector instruction queue wakeup accesses
system.cpu0.iq.vec_inst_queue_writes                0                       # Number of vector instruction queue writes
system.cpu0.itb.accesses                            0                       # DTB accesses
system.cpu0.itb.hits                                0                       # DTB hits
system.cpu0.itb.misses                              0                       # DTB misses
system.cpu0.itb.read_accesses                       0                       # DTB read accesses
system.cpu0.itb.read_hits                           0                       # DTB read hits
system.cpu0.itb.read_misses                         0                       # DTB read misses
system.cpu0.itb.write_accesses                      0                       # DTB write accesses
system.cpu0.itb.write_hits                          0                       # DTB write hits
system.cpu0.itb.write_misses                        0                       # DTB write misses
system.cpu0.memDep0.conflictingLoads         56975938                       # Number of conflicting loads.
system.cpu0.memDep0.conflictingStores         9141333                       # Number of conflicting stores.
system.cpu0.memDep0.insertedLoads           730365294                       # Number of loads inserted to the mem dependence unit.
system.cpu0.memDep0.insertedStores          282211549                       # Number of stores inserted to the mem dependence unit.
system.cpu0.misc_regfile_reads                   2899                       # number of misc regfile reads
system.cpu0.misc_regfile_writes                    22                       # number of misc regfile writes
system.cpu0.numCycles                      6994285385                       # number of cpu cycles simulated
system.cpu0.numWorkItemsCompleted                   0                       # number of work items this cpu completed
system.cpu0.numWorkItemsStarted                     0                       # number of work items this cpu started
system.cpu0.quiesceCycles                     8010927                       # Total number of cycles that CPU has spent quiesced or waiting for an interrupt
system.cpu0.rename.BlockCycles              618550442                       # Number of cycles rename is blocking
system.cpu0.rename.CommittedMaps           1421369469                       # Number of HB maps that are committed
system.cpu0.rename.IQFullEvents              26095963                       # Number of times rename has blocked due to IQ full
system.cpu0.rename.IdleCycles              2014718758                       # Number of cycles rename is idle
system.cpu0.rename.LQFullEvents              26102042                       # Number of times rename has blocked due to LQ full
system.cpu0.rename.ROBFullEvents                63159                       # Number of times rename has blocked due to ROB full
system.cpu0.rename.RenameLookups           2878366947                       # Number of register rename lookups that rename has made
system.cpu0.rename.RenamedInsts            2352484126                       # Number of instructions processed by rename
system.cpu0.rename.RenamedOperands         1507721925                       # Number of destination operands rename has renamed
system.cpu0.rename.RunCycles               1610203733                       # Number of cycles rename is running
system.cpu0.rename.SQFullEvents              26638642                       # Number of times rename has blocked due to SQ full
system.cpu0.rename.SquashCycles              13468639                       # Number of cycles rename is squashing
system.cpu0.rename.UnblockCycles             79532278                       # Number of cycles rename is unblocking
system.cpu0.rename.UndoneMaps                86352451                       # Number of HB maps that are undone due to squashing
system.cpu0.rename.fp_rename_lookups               44                       # Number of floating rename lookups
system.cpu0.rename.int_rename_lookups      2878366903                       # Number of integer rename lookups
system.cpu0.rename.serializeStallCycles        215821                       # count of cycles rename stalled for serializing inst
system.cpu0.rename.serializingInsts              8875                       # count of serializing insts renamed
system.cpu0.rename.skidInsts                 55017946                       # count of insts added to the skid buffer
system.cpu0.rename.tempSerializingInsts          8829                       # count of temporary serializing insts renamed
system.cpu0.rob.rob_reads                  6577553146                       # The number of ROB reads
system.cpu0.rob.rob_writes                 4688971002                       # The number of ROB writes
system.cpu0.timesIdled                       78234792                       # Number of times that the entire CPU went into an idle state and unscheduled itself
system.cpu0.workload.numSyscalls                 2866                       # Number of system calls
system.cpu1.branchPred.BTBCorrect                   0                       # Number of correct BTB predictions (this stat may not work properly.
system.cpu1.branchPred.BTBHitPct            93.488120                       # BTB Hit Percentage
system.cpu1.branchPred.BTBHits               17905057                       # Number of BTB hits
system.cpu1.branchPred.BTBLookups            19152227                       # Number of BTB lookups
system.cpu1.branchPred.RASInCorrect                 0                       # Number of incorrect RAS predictions.
system.cpu1.branchPred.condIncorrect          1775435                       # Number of conditional branches incorrect
system.cpu1.branchPred.condPredicted         32521288                       # Number of conditional branches predicted
system.cpu1.branchPred.indirectHits            910910                       # Number of indirect target hits.
system.cpu1.branchPred.indirectLookups         923878                       # Number of indirect predictor lookups.
system.cpu1.branchPred.indirectMisses           12968                       # Number of indirect misses.
system.cpu1.branchPred.lookups               35729536                       # Number of BP lookups
system.cpu1.branchPred.usedRAS                      0                       # Number of times the RAS was used to get a target.
system.cpu1.branchPredindirectMispredicted        48288                       # Number of mispredicted indirect branches.
system.cpu1.commit.amos                       3801578                       # Number of atomic instructions committed
system.cpu1.commit.branchMispredicts          1378818                       # The number of times a branch was mispredicted
system.cpu1.commit.branches                  29517749                       # Number of branches committed
system.cpu1.commit.bw_lim_events              3421421                       # number cycles where commit BW limit reached
system.cpu1.commit.commitNonSpecStalls       11405430                       # The number of times commit has been forced to stall to communicate backwards
system.cpu1.commit.commitSquashedInsts       14797864                       # The number of squashed insts skipped by commit
system.cpu1.commit.committedInsts           130069814                       # Number of instructions committed
system.cpu1.commit.committedOps             133871577                       # Number of ops (including micro ops) committed
system.cpu1.commit.committed_per_cycle::samples    683353019                       # Number of insts commited each cycle
system.cpu1.commit.committed_per_cycle::mean     0.195904                       # Number of insts commited each cycle
system.cpu1.commit.committed_per_cycle::stdev     0.879584                       # Number of insts commited each cycle
system.cpu1.commit.committed_per_cycle::underflows            0      0.00%      0.00% # Number of insts commited each cycle
system.cpu1.commit.committed_per_cycle::0    628546075     91.98%     91.98% # Number of insts commited each cycle
system.cpu1.commit.committed_per_cycle::1     27093208      3.96%     95.94% # Number of insts commited each cycle
system.cpu1.commit.committed_per_cycle::2      8913116      1.30%     97.25% # Number of insts commited each cycle
system.cpu1.commit.committed_per_cycle::3      8742112      1.28%     98.53% # Number of insts commited each cycle
system.cpu1.commit.committed_per_cycle::4      2032083      0.30%     98.83% # Number of insts commited each cycle
system.cpu1.commit.committed_per_cycle::5       737972      0.11%     98.93% # Number of insts commited each cycle
system.cpu1.commit.committed_per_cycle::6      3532983      0.52%     99.45% # Number of insts commited each cycle
system.cpu1.commit.committed_per_cycle::7       334049      0.05%     99.50% # Number of insts commited each cycle
system.cpu1.commit.committed_per_cycle::8      3421421      0.50%    100.00% # Number of insts commited each cycle
system.cpu1.commit.committed_per_cycle::overflows            0      0.00%    100.00% # Number of insts commited each cycle
system.cpu1.commit.committed_per_cycle::min_value            0                       # Number of insts commited each cycle
system.cpu1.commit.committed_per_cycle::max_value            8                       # Number of insts commited each cycle
system.cpu1.commit.committed_per_cycle::total    683353019                       # Number of insts commited each cycle
system.cpu1.commit.fp_insts                        12                       # Number of committed floating point instructions.
system.cpu1.commit.function_calls             1457209                       # Number of function calls committed.
system.cpu1.commit.int_insts                125275708                       # Number of committed integer instructions.
system.cpu1.commit.loads                     36890504                       # Number of loads committed
system.cpu1.commit.membars                    7603289                       # Number of memory barriers committed
system.cpu1.commit.op_class_0::No_OpClass      7603289      5.68%      5.68% # Class of committed instruction
system.cpu1.commit.op_class_0::IntAlu        77453176     57.86%     63.54% # Class of committed instruction
system.cpu1.commit.op_class_0::IntMult             44      0.00%     63.54% # Class of committed instruction
system.cpu1.commit.op_class_0::IntDiv              88      0.00%     63.54% # Class of committed instruction
system.cpu1.commit.op_class_0::FloatAdd             0      0.00%     63.54% # Class of committed instruction
system.cpu1.commit.op_class_0::FloatCmp             0      0.00%     63.54% # Class of committed instruction
system.cpu1.commit.op_class_0::FloatCvt             0      0.00%     63.54% # Class of committed instruction
system.cpu1.commit.op_class_0::FloatMult            0      0.00%     63.54% # Class of committed instruction
system.cpu1.commit.op_class_0::FloatMultAcc            0      0.00%     63.54% # Class of committed instruction
system.cpu1.commit.op_class_0::FloatDiv             0      0.00%     63.54% # Class of committed instruction
system.cpu1.commit.op_class_0::FloatMisc            0      0.00%     63.54% # Class of committed instruction
system.cpu1.commit.op_class_0::FloatSqrt            0      0.00%     63.54% # Class of committed instruction
system.cpu1.commit.op_class_0::SimdAdd              0      0.00%     63.54% # Class of committed instruction
system.cpu1.commit.op_class_0::SimdAddAcc            0      0.00%     63.54% # Class of committed instruction
system.cpu1.commit.op_class_0::SimdAlu              0      0.00%     63.54% # Class of committed instruction
system.cpu1.commit.op_class_0::SimdCmp              0      0.00%     63.54% # Class of committed instruction
system.cpu1.commit.op_class_0::SimdCvt              0      0.00%     63.54% # Class of committed instruction
system.cpu1.commit.op_class_0::SimdMisc             0      0.00%     63.54% # Class of committed instruction
system.cpu1.commit.op_class_0::SimdMult             0      0.00%     63.54% # Class of committed instruction
system.cpu1.commit.op_class_0::SimdMultAcc            0      0.00%     63.54% # Class of committed instruction
system.cpu1.commit.op_class_0::SimdShift            0      0.00%     63.54% # Class of committed instruction
system.cpu1.commit.op_class_0::SimdShiftAcc            0      0.00%     63.54% # Class of committed instruction
system.cpu1.commit.op_class_0::SimdDiv              0      0.00%     63.54% # Class of committed instruction
system.cpu1.commit.op_class_0::SimdSqrt             0      0.00%     63.54% # Class of committed instruction
system.cpu1.commit.op_class_0::SimdFloatAdd            0      0.00%     63.54% # Class of committed instruction
system.cpu1.commit.op_class_0::SimdFloatAlu            0      0.00%     63.54% # Class of committed instruction
system.cpu1.commit.op_class_0::SimdFloatCmp            0      0.00%     63.54% # Class of committed instruction
system.cpu1.commit.op_class_0::SimdFloatCvt            0      0.00%     63.54% # Class of committed instruction
system.cpu1.commit.op_class_0::SimdFloatDiv            0      0.00%     63.54% # Class of committed instruction
system.cpu1.commit.op_class_0::SimdFloatMisc            0      0.00%     63.54% # Class of committed instruction
system.cpu1.commit.op_class_0::SimdFloatMult            0      0.00%     63.54% # Class of committed instruction
system.cpu1.commit.op_class_0::SimdFloatMultAcc            0      0.00%     63.54% # Class of committed instruction
system.cpu1.commit.op_class_0::SimdFloatSqrt            0      0.00%     63.54% # Class of committed instruction
system.cpu1.commit.op_class_0::SimdReduceAdd            0      0.00%     63.54% # Class of committed instruction
system.cpu1.commit.op_class_0::SimdReduceAlu            0      0.00%     63.54% # Class of committed instruction
system.cpu1.commit.op_class_0::SimdReduceCmp            0      0.00%     63.54% # Class of committed instruction
system.cpu1.commit.op_class_0::SimdFloatReduceAdd            0      0.00%     63.54% # Class of committed instruction
system.cpu1.commit.op_class_0::SimdFloatReduceCmp            0      0.00%     63.54% # Class of committed instruction
system.cpu1.commit.op_class_0::SimdAes              0      0.00%     63.54% # Class of committed instruction
system.cpu1.commit.op_class_0::SimdAesMix            0      0.00%     63.54% # Class of committed instruction
system.cpu1.commit.op_class_0::SimdSha1Hash            0      0.00%     63.54% # Class of committed instruction
system.cpu1.commit.op_class_0::SimdSha1Hash2            0      0.00%     63.54% # Class of committed instruction
system.cpu1.commit.op_class_0::SimdSha256Hash            0      0.00%     63.54% # Class of committed instruction
system.cpu1.commit.op_class_0::SimdSha256Hash2            0      0.00%     63.54% # Class of committed instruction
system.cpu1.commit.op_class_0::SimdShaSigma2            0      0.00%     63.54% # Class of committed instruction
system.cpu1.commit.op_class_0::SimdShaSigma3            0      0.00%     63.54% # Class of committed instruction
system.cpu1.commit.op_class_0::SimdPredAlu            0      0.00%     63.54% # Class of committed instruction
system.cpu1.commit.op_class_0::MemRead       40692082     30.40%     93.93% # Class of committed instruction
system.cpu1.commit.op_class_0::MemWrite       8122886      6.07%    100.00% # Class of committed instruction
system.cpu1.commit.op_class_0::FloatMemRead            0      0.00%    100.00% # Class of committed instruction
system.cpu1.commit.op_class_0::FloatMemWrite           12      0.00%    100.00% # Class of committed instruction
system.cpu1.commit.op_class_0::IprAccess            0      0.00%    100.00% # Class of committed instruction
system.cpu1.commit.op_class_0::InstPrefetch            0      0.00%    100.00% # Class of committed instruction
system.cpu1.commit.op_class_0::total        133871577                       # Class of committed instruction
system.cpu1.commit.refs                      48814980                       # Number of memory references committed
system.cpu1.commit.swp_count                        0                       # Number of s/w prefetches committed
system.cpu1.commit.vec_insts                        0                       # Number of committed Vector instructions.
system.cpu1.committedInsts                  130069814                       # Number of Instructions Simulated
system.cpu1.committedOps                    133871577                       # Number of Ops (including micro ops) Simulated
system.cpu1.cpi                              5.283139                       # CPI: Cycles Per Instruction
system.cpu1.cpi_total                        5.283139                       # CPI: Total CPI of All Threads
system.cpu1.decode.BlockedCycles            604883572                       # Number of cycles decode is blocked
system.cpu1.decode.BranchMispred               414700                       # Number of times decode detected a branch misprediction
system.cpu1.decode.BranchResolved            17254451                       # Number of times decode resolved a branch
system.cpu1.decode.DecodedInsts             154423356                       # Number of instructions handled by decode
system.cpu1.decode.IdleCycles                21154308                       # Number of cycles decode is idle
system.cpu1.decode.RunCycles                 49908515                       # Number of cycles decode is running
system.cpu1.decode.SquashCycles               1380424                       # Number of cycles decode is squashing
system.cpu1.decode.SquashedInsts              1109435                       # Number of squashed instructions handled by decode
system.cpu1.decode.UnblockCycles              8825332                       # Number of cycles decode is unblocking
system.cpu1.dtb.accesses                            0                       # DTB accesses
system.cpu1.dtb.hits                                0                       # DTB hits
system.cpu1.dtb.misses                              0                       # DTB misses
system.cpu1.dtb.read_accesses                       0                       # DTB read accesses
system.cpu1.dtb.read_hits                           0                       # DTB read hits
system.cpu1.dtb.read_misses                         0                       # DTB read misses
system.cpu1.dtb.write_accesses                      0                       # DTB write accesses
system.cpu1.dtb.write_hits                          0                       # DTB write hits
system.cpu1.dtb.write_misses                        0                       # DTB write misses
system.cpu1.fetch.Branches                   35729536                       # Number of branches that fetch encountered
system.cpu1.fetch.CacheLines                 21049818                       # Number of cache lines fetched
system.cpu1.fetch.Cycles                    662008875                       # Number of cycles fetch has run and was not squashing or blocked
system.cpu1.fetch.IcacheSquashes               144710                       # Number of outstanding Icache misses that were squashed
system.cpu1.fetch.Insts                     155294386                       # Number of instructions fetch has processed
system.cpu1.fetch.MiscStallCycles                   1                       # Number of cycles fetch has spent waiting on interrupts, or bad addresses, or out of MSHRs
system.cpu1.fetch.SquashCycles                3554082                       # Number of cycles fetch has spent squashing
system.cpu1.fetch.branchRate                 0.051995                       # Number of branch fetches per cycle
system.cpu1.fetch.icacheStallCycles          22366234                       # Number of cycles fetch is stalled on an Icache miss
system.cpu1.fetch.predictedBranches          18815967                       # Number of branches that fetch has predicted taken
system.cpu1.fetch.rate                       0.225989                       # Number of inst fetches per cycle
system.cpu1.fetch.rateDist::samples         686152151                       # Number of instructions fetched each cycle (Total)
system.cpu1.fetch.rateDist::mean             0.231868                       # Number of instructions fetched each cycle (Total)
system.cpu1.fetch.rateDist::stdev            0.678994                       # Number of instructions fetched each cycle (Total)
system.cpu1.fetch.rateDist::underflows              0      0.00%      0.00% # Number of instructions fetched each cycle (Total)
system.cpu1.fetch.rateDist::0               591287184     86.17%     86.17% # Number of instructions fetched each cycle (Total)
system.cpu1.fetch.rateDist::1                54055755      7.88%     94.05% # Number of instructions fetched each cycle (Total)
system.cpu1.fetch.rateDist::2                24717716      3.60%     97.65% # Number of instructions fetched each cycle (Total)
system.cpu1.fetch.rateDist::3                10768462      1.57%     99.22% # Number of instructions fetched each cycle (Total)
system.cpu1.fetch.rateDist::4                 3385208      0.49%     99.72% # Number of instructions fetched each cycle (Total)
system.cpu1.fetch.rateDist::5                 1870103      0.27%     99.99% # Number of instructions fetched each cycle (Total)
system.cpu1.fetch.rateDist::6                   66226      0.01%    100.00% # Number of instructions fetched each cycle (Total)
system.cpu1.fetch.rateDist::7                     705      0.00%    100.00% # Number of instructions fetched each cycle (Total)
system.cpu1.fetch.rateDist::8                     792      0.00%    100.00% # Number of instructions fetched each cycle (Total)
system.cpu1.fetch.rateDist::overflows               0      0.00%    100.00% # Number of instructions fetched each cycle (Total)
system.cpu1.fetch.rateDist::min_value               0                       # Number of instructions fetched each cycle (Total)
system.cpu1.fetch.rateDist::max_value               8                       # Number of instructions fetched each cycle (Total)
system.cpu1.fetch.rateDist::total           686152151                       # Number of instructions fetched each cycle (Total)
system.cpu1.fp_regfile_reads                       12                       # number of floating regfile reads
system.cpu1.idleCycles                        1024814                       # Total number of cycles that the CPU has spent unscheduled due to idling
system.cpu1.iew.branchMispredicts             1507758                       # Number of branch mispredicts detected at execute
system.cpu1.iew.exec_branches                31599237                       # Number of branches executed
system.cpu1.iew.exec_nop                            0                       # number of nop insts executed
system.cpu1.iew.exec_rate                    0.209800                       # Inst execution rate
system.cpu1.iew.exec_refs                    51942959                       # number of memory reference insts executed
system.cpu1.iew.exec_stores                  12317044                       # Number of stores executed
system.cpu1.iew.exec_swp                            0                       # number of swp insts executed
system.cpu1.iew.iewBlockCycles              518263823                       # Number of cycles IEW is blocking
system.cpu1.iew.iewDispLoadInsts             40156574                       # Number of dispatched load instructions
system.cpu1.iew.iewDispNonSpecInsts           3802238                       # Number of dispatched non-speculative instructions
system.cpu1.iew.iewDispSquashedInsts          1109517                       # Number of squashed instructions skipped by dispatch
system.cpu1.iew.iewDispStoreInsts            12614427                       # Number of dispatched store instructions
system.cpu1.iew.iewDispatchedInsts          148656640                       # Number of instructions dispatched to IQ
system.cpu1.iew.iewExecLoadInsts             39625915                       # Number of load instructions executed
system.cpu1.iew.iewExecSquashedInsts          1451424                       # Number of squashed instructions skipped in execute
system.cpu1.iew.iewExecutedInsts            144169790                       # Number of executed instructions
system.cpu1.iew.iewIQFullEvents               3455482                       # Number of times the IQ has become full, causing a stall
system.cpu1.iew.iewIdleCycles                       0                       # Number of cycles IEW is idle
system.cpu1.iew.iewLSQFullEvents              5241025                       # Number of times the LSQ has become full, causing a stall
system.cpu1.iew.iewSquashCycles               1380424                       # Number of cycles IEW is squashing
system.cpu1.iew.iewUnblockCycles             12844651                       # Number of cycles IEW is unblocking
system.cpu1.iew.lsq.thread0.blockedLoads            0                       # Number of blocked loads due to partial load-store forwarding
system.cpu1.iew.lsq.thread0.cacheBlocked        58278                       # Number of times an access to memory failed due to the cache being blocked
system.cpu1.iew.lsq.thread0.forwLoads         1124057                       # Number of loads that had data forwarded from stores
system.cpu1.iew.lsq.thread0.ignoredResponses        31803                       # Number of memory responses ignored because the instruction is squashed
system.cpu1.iew.lsq.thread0.invAddrLoads            0                       # Number of loads ignored due to an invalid address
system.cpu1.iew.lsq.thread0.invAddrSwpfs            0                       # Number of software prefetches ignored due to an invalid address
system.cpu1.iew.lsq.thread0.memOrderViolation         1925                       # Number of memory ordering violations
system.cpu1.iew.lsq.thread0.rescheduledLoads         4941                       # Number of loads that were rescheduled
system.cpu1.iew.lsq.thread0.squashedLoads      3266070                       # Number of loads squashed
system.cpu1.iew.lsq.thread0.squashedStores       689951                       # Number of stores squashed
system.cpu1.iew.memOrderViolationEvents          1925                       # Number of memory order violations
system.cpu1.iew.predictedNotTakenIncorrect       524610                       # Number of branches that were predicted not taken incorrectly
system.cpu1.iew.predictedTakenIncorrect        983148                       # Number of branches that were predicted taken incorrectly
system.cpu1.iew.wb_consumers                 83180337                       # num instructions consuming a value
system.cpu1.iew.wb_count                    143151790                       # cumulative count of insts written-back
system.cpu1.iew.wb_fanout                    0.848724                       # average fanout of values written-back
system.cpu1.iew.wb_producers                 70597169                       # num instructions producing a value
system.cpu1.iew.wb_rate                      0.208319                       # insts written-back per cycle
system.cpu1.iew.wb_sent                     143196745                       # cumulative count of insts sent to commit
system.cpu1.int_regfile_reads               179255117                       # number of integer regfile reads
system.cpu1.int_regfile_writes               96253533                       # number of integer regfile writes
system.cpu1.ipc                              0.189281                       # IPC: Instructions Per Cycle
system.cpu1.ipc_total                        0.189281                       # IPC: Total IPC of All Threads
system.cpu1.iq.FU_type_0::No_OpClass          7603395      5.22%      5.22% # Type of FU issued
system.cpu1.iq.FU_type_0::IntAlu             85639471     58.81%     64.03% # Type of FU issued
system.cpu1.iq.FU_type_0::IntMult                  47      0.00%     64.03% # Type of FU issued
system.cpu1.iq.FU_type_0::IntDiv                   88      0.00%     64.03% # Type of FU issued
system.cpu1.iq.FU_type_0::FloatAdd                  0      0.00%     64.03% # Type of FU issued
system.cpu1.iq.FU_type_0::FloatCmp                  0      0.00%     64.03% # Type of FU issued
system.cpu1.iq.FU_type_0::FloatCvt                  0      0.00%     64.03% # Type of FU issued
system.cpu1.iq.FU_type_0::FloatMult                 0      0.00%     64.03% # Type of FU issued
system.cpu1.iq.FU_type_0::FloatMultAcc              0      0.00%     64.03% # Type of FU issued
system.cpu1.iq.FU_type_0::FloatDiv                  0      0.00%     64.03% # Type of FU issued
system.cpu1.iq.FU_type_0::FloatMisc                 0      0.00%     64.03% # Type of FU issued
system.cpu1.iq.FU_type_0::FloatSqrt                 0      0.00%     64.03% # Type of FU issued
system.cpu1.iq.FU_type_0::SimdAdd                   0      0.00%     64.03% # Type of FU issued
system.cpu1.iq.FU_type_0::SimdAddAcc                0      0.00%     64.03% # Type of FU issued
system.cpu1.iq.FU_type_0::SimdAlu                   0      0.00%     64.03% # Type of FU issued
system.cpu1.iq.FU_type_0::SimdCmp                   0      0.00%     64.03% # Type of FU issued
system.cpu1.iq.FU_type_0::SimdCvt                   0      0.00%     64.03% # Type of FU issued
system.cpu1.iq.FU_type_0::SimdMisc                  0      0.00%     64.03% # Type of FU issued
system.cpu1.iq.FU_type_0::SimdMult                  0      0.00%     64.03% # Type of FU issued
system.cpu1.iq.FU_type_0::SimdMultAcc               0      0.00%     64.03% # Type of FU issued
system.cpu1.iq.FU_type_0::SimdShift                 0      0.00%     64.03% # Type of FU issued
system.cpu1.iq.FU_type_0::SimdShiftAcc              0      0.00%     64.03% # Type of FU issued
system.cpu1.iq.FU_type_0::SimdDiv                   0      0.00%     64.03% # Type of FU issued
system.cpu1.iq.FU_type_0::SimdSqrt                  0      0.00%     64.03% # Type of FU issued
system.cpu1.iq.FU_type_0::SimdFloatAdd              0      0.00%     64.03% # Type of FU issued
system.cpu1.iq.FU_type_0::SimdFloatAlu              0      0.00%     64.03% # Type of FU issued
system.cpu1.iq.FU_type_0::SimdFloatCmp              0      0.00%     64.03% # Type of FU issued
system.cpu1.iq.FU_type_0::SimdFloatCvt              0      0.00%     64.03% # Type of FU issued
system.cpu1.iq.FU_type_0::SimdFloatDiv              0      0.00%     64.03% # Type of FU issued
system.cpu1.iq.FU_type_0::SimdFloatMisc             0      0.00%     64.03% # Type of FU issued
system.cpu1.iq.FU_type_0::SimdFloatMult             0      0.00%     64.03% # Type of FU issued
system.cpu1.iq.FU_type_0::SimdFloatMultAcc            0      0.00%     64.03% # Type of FU issued
system.cpu1.iq.FU_type_0::SimdFloatSqrt             0      0.00%     64.03% # Type of FU issued
system.cpu1.iq.FU_type_0::SimdReduceAdd             0      0.00%     64.03% # Type of FU issued
system.cpu1.iq.FU_type_0::SimdReduceAlu             0      0.00%     64.03% # Type of FU issued
system.cpu1.iq.FU_type_0::SimdReduceCmp             0      0.00%     64.03% # Type of FU issued
system.cpu1.iq.FU_type_0::SimdFloatReduceAdd            0      0.00%     64.03% # Type of FU issued
system.cpu1.iq.FU_type_0::SimdFloatReduceCmp            0      0.00%     64.03% # Type of FU issued
system.cpu1.iq.FU_type_0::SimdAes                   0      0.00%     64.03% # Type of FU issued
system.cpu1.iq.FU_type_0::SimdAesMix                0      0.00%     64.03% # Type of FU issued
system.cpu1.iq.FU_type_0::SimdSha1Hash              0      0.00%     64.03% # Type of FU issued
system.cpu1.iq.FU_type_0::SimdSha1Hash2             0      0.00%     64.03% # Type of FU issued
system.cpu1.iq.FU_type_0::SimdSha256Hash            0      0.00%     64.03% # Type of FU issued
system.cpu1.iq.FU_type_0::SimdSha256Hash2            0      0.00%     64.03% # Type of FU issued
system.cpu1.iq.FU_type_0::SimdShaSigma2             0      0.00%     64.03% # Type of FU issued
system.cpu1.iq.FU_type_0::SimdShaSigma3             0      0.00%     64.03% # Type of FU issued
system.cpu1.iq.FU_type_0::SimdPredAlu               0      0.00%     64.03% # Type of FU issued
system.cpu1.iq.FU_type_0::MemRead            43821619     30.09%     94.12% # Type of FU issued
system.cpu1.iq.FU_type_0::MemWrite            8556582      5.88%    100.00% # Type of FU issued
system.cpu1.iq.FU_type_0::FloatMemRead              0      0.00%    100.00% # Type of FU issued
system.cpu1.iq.FU_type_0::FloatMemWrite            12      0.00%    100.00% # Type of FU issued
system.cpu1.iq.FU_type_0::IprAccess                 0      0.00%    100.00% # Type of FU issued
system.cpu1.iq.FU_type_0::InstPrefetch              0      0.00%    100.00% # Type of FU issued
system.cpu1.iq.FU_type_0::total             145621214                       # Type of FU issued
system.cpu1.iq.fp_alu_accesses                     14                       # Number of floating point alu accesses
system.cpu1.iq.fp_inst_queue_reads                 26                       # Number of floating instruction queue reads
system.cpu1.iq.fp_inst_queue_wakeup_accesses           12                       # Number of floating instruction queue wakeup accesses
system.cpu1.iq.fp_inst_queue_writes                12                       # Number of floating instruction queue writes
system.cpu1.iq.fu_busy_cnt                    4232342                       # FU busy when requested
system.cpu1.iq.fu_busy_rate                  0.029064                       # FU busy rate (busy events/executed inst)
system.cpu1.iq.fu_full::No_OpClass                  0      0.00%      0.00% # attempts to use FU when none available
system.cpu1.iq.fu_full::IntAlu                 812823     19.21%     19.21% # attempts to use FU when none available
system.cpu1.iq.fu_full::IntMult                     0      0.00%     19.21% # attempts to use FU when none available
system.cpu1.iq.fu_full::IntDiv                      0      0.00%     19.21% # attempts to use FU when none available
system.cpu1.iq.fu_full::FloatAdd                    0      0.00%     19.21% # attempts to use FU when none available
system.cpu1.iq.fu_full::FloatCmp                    0      0.00%     19.21% # attempts to use FU when none available
system.cpu1.iq.fu_full::FloatCvt                    0      0.00%     19.21% # attempts to use FU when none available
system.cpu1.iq.fu_full::FloatMult                   0      0.00%     19.21% # attempts to use FU when none available
system.cpu1.iq.fu_full::FloatMultAcc                0      0.00%     19.21% # attempts to use FU when none available
system.cpu1.iq.fu_full::FloatDiv                    0      0.00%     19.21% # attempts to use FU when none available
system.cpu1.iq.fu_full::FloatMisc                   0      0.00%     19.21% # attempts to use FU when none available
system.cpu1.iq.fu_full::FloatSqrt                   0      0.00%     19.21% # attempts to use FU when none available
system.cpu1.iq.fu_full::SimdAdd                     0      0.00%     19.21% # attempts to use FU when none available
system.cpu1.iq.fu_full::SimdAddAcc                  0      0.00%     19.21% # attempts to use FU when none available
system.cpu1.iq.fu_full::SimdAlu                     0      0.00%     19.21% # attempts to use FU when none available
system.cpu1.iq.fu_full::SimdCmp                     0      0.00%     19.21% # attempts to use FU when none available
system.cpu1.iq.fu_full::SimdCvt                     0      0.00%     19.21% # attempts to use FU when none available
system.cpu1.iq.fu_full::SimdMisc                    0      0.00%     19.21% # attempts to use FU when none available
system.cpu1.iq.fu_full::SimdMult                    0      0.00%     19.21% # attempts to use FU when none available
system.cpu1.iq.fu_full::SimdMultAcc                 0      0.00%     19.21% # attempts to use FU when none available
system.cpu1.iq.fu_full::SimdShift                   0      0.00%     19.21% # attempts to use FU when none available
system.cpu1.iq.fu_full::SimdShiftAcc                0      0.00%     19.21% # attempts to use FU when none available
system.cpu1.iq.fu_full::SimdDiv                     0      0.00%     19.21% # attempts to use FU when none available
system.cpu1.iq.fu_full::SimdSqrt                    0      0.00%     19.21% # attempts to use FU when none available
system.cpu1.iq.fu_full::SimdFloatAdd                0      0.00%     19.21% # attempts to use FU when none available
system.cpu1.iq.fu_full::SimdFloatAlu                0      0.00%     19.21% # attempts to use FU when none available
system.cpu1.iq.fu_full::SimdFloatCmp                0      0.00%     19.21% # attempts to use FU when none available
system.cpu1.iq.fu_full::SimdFloatCvt                0      0.00%     19.21% # attempts to use FU when none available
system.cpu1.iq.fu_full::SimdFloatDiv                0      0.00%     19.21% # attempts to use FU when none available
system.cpu1.iq.fu_full::SimdFloatMisc               0      0.00%     19.21% # attempts to use FU when none available
system.cpu1.iq.fu_full::SimdFloatMult               0      0.00%     19.21% # attempts to use FU when none available
system.cpu1.iq.fu_full::SimdFloatMultAcc            0      0.00%     19.21% # attempts to use FU when none available
system.cpu1.iq.fu_full::SimdFloatSqrt               0      0.00%     19.21% # attempts to use FU when none available
system.cpu1.iq.fu_full::SimdReduceAdd               0      0.00%     19.21% # attempts to use FU when none available
system.cpu1.iq.fu_full::SimdReduceAlu               0      0.00%     19.21% # attempts to use FU when none available
system.cpu1.iq.fu_full::SimdReduceCmp               0      0.00%     19.21% # attempts to use FU when none available
system.cpu1.iq.fu_full::SimdFloatReduceAdd            0      0.00%     19.21% # attempts to use FU when none available
system.cpu1.iq.fu_full::SimdFloatReduceCmp            0      0.00%     19.21% # attempts to use FU when none available
system.cpu1.iq.fu_full::SimdAes                     0      0.00%     19.21% # attempts to use FU when none available
system.cpu1.iq.fu_full::SimdAesMix                  0      0.00%     19.21% # attempts to use FU when none available
system.cpu1.iq.fu_full::SimdSha1Hash                0      0.00%     19.21% # attempts to use FU when none available
system.cpu1.iq.fu_full::SimdSha1Hash2               0      0.00%     19.21% # attempts to use FU when none available
system.cpu1.iq.fu_full::SimdSha256Hash              0      0.00%     19.21% # attempts to use FU when none available
system.cpu1.iq.fu_full::SimdSha256Hash2             0      0.00%     19.21% # attempts to use FU when none available
system.cpu1.iq.fu_full::SimdShaSigma2               0      0.00%     19.21% # attempts to use FU when none available
system.cpu1.iq.fu_full::SimdShaSigma3               0      0.00%     19.21% # attempts to use FU when none available
system.cpu1.iq.fu_full::SimdPredAlu                 0      0.00%     19.21% # attempts to use FU when none available
system.cpu1.iq.fu_full::MemRead               3061477     72.34%     91.54% # attempts to use FU when none available
system.cpu1.iq.fu_full::MemWrite               358040      8.46%    100.00% # attempts to use FU when none available
[...]
system.cpu1.dcache.ReadReq_miss_rate::total     0.193418                       # miss rate for ReadReq accesses
system.cpu1.dcache.ReadReq_avg_miss_latency::.cpu1.data 65792.310257                       # average ReadReq miss latency
system.cpu1.dcache.ReadReq_avg_miss_latency::total 65792.310257                       # average ReadReq miss latency
system.cpu1.dcache.ReadReq_mshr_hits::.cpu1.data      5869755                       # number of ReadReq MSHR hits
system.cpu1.dcache.ReadReq_mshr_hits::total      5869755                       # number of ReadReq MSHR hits
system.cpu1.dcache.ReadReq_mshr_misses::.cpu1.data      2971854                       # number of ReadReq MSHR misses
system.cpu1.dcache.ReadReq_mshr_misses::total      2971854                       # number of ReadReq MSHR misses
system.cpu1.dcache.ReadReq_mshr_miss_latency::.cpu1.data 257740667500                       # number of ReadReq MSHR miss cycles
system.cpu1.dcache.ReadReq_mshr_miss_latency::total 257740667500                       # number of ReadReq MSHR miss cycles
system.cpu1.dcache.ReadReq_mshr_miss_rate::.cpu1.data     0.065012                       # mshr miss rate for ReadReq accesses
system.cpu1.dcache.ReadReq_mshr_miss_rate::total     0.065012                       # mshr miss rate for ReadReq accesses
system.cpu1.dcache.ReadReq_avg_mshr_miss_latency::.cpu1.data 86727.230712                       # average ReadReq mshr miss latency
system.cpu1.dcache.ReadReq_avg_mshr_miss_latency::total 86727.230712                       # average ReadReq mshr miss latency
system.cpu1.dcache.WriteReq_hits::.cpu1.data      1326772                       # number of WriteReq hits
system.cpu1.dcache.WriteReq_hits::total       1326772                       # number of WriteReq hits
system.cpu1.dcache.WriteReq_misses::.cpu1.data      1003486                       # number of WriteReq misses
system.cpu1.dcache.WriteReq_misses::total      1003486                       # number of WriteReq misses
system.cpu1.dcache.WriteReq_miss_latency::.cpu1.data  77255477496                       # number of WriteReq miss cycles
system.cpu1.dcache.WriteReq_miss_latency::total  77255477496                       # number of WriteReq miss cycles
system.cpu1.dcache.WriteReq_accesses::.cpu1.data      2330258                       # number of WriteReq accesses(hits+misses)
system.cpu1.dcache.WriteReq_accesses::total      2330258                       # number of WriteReq accesses(hits+misses)
system.cpu1.dcache.WriteReq_miss_rate::.cpu1.data     0.430633                       # miss rate for WriteReq accesses
system.cpu1.dcache.WriteReq_miss_rate::total     0.430633                       # miss rate for WriteReq accesses
system.cpu1.dcache.WriteReq_avg_miss_latency::.cpu1.data 76987.100464                       # average WriteReq miss latency
system.cpu1.dcache.WriteReq_avg_miss_latency::total 76987.100464                       # average WriteReq miss latency
system.cpu1.dcache.WriteReq_mshr_hits::.cpu1.data       903494                       # number of WriteReq MSHR hits
system.cpu1.dcache.WriteReq_mshr_hits::total       903494                       # number of WriteReq MSHR hits
system.cpu1.dcache.WriteReq_mshr_misses::.cpu1.data        99992                       # number of WriteReq MSHR misses
system.cpu1.dcache.WriteReq_mshr_misses::total        99992                       # number of WriteReq MSHR misses
system.cpu1.dcache.WriteReq_mshr_miss_latency::.cpu1.data   7102814000                       # number of WriteReq MSHR miss cycles
system.cpu1.dcache.WriteReq_mshr_miss_latency::total   7102814000                       # number of WriteReq MSHR miss cycles
system.cpu1.dcache.WriteReq_mshr_miss_rate::.cpu1.data     0.042910                       # mshr miss rate for WriteReq accesses
system.cpu1.dcache.WriteReq_mshr_miss_rate::total     0.042910                       # mshr miss rate for WriteReq accesses
system.cpu1.dcache.WriteReq_avg_mshr_miss_latency::.cpu1.data 71033.822706                       # average WriteReq mshr miss latency
system.cpu1.dcache.WriteReq_avg_mshr_miss_latency::total 71033.822706                       # average WriteReq mshr miss latency
system.cpu1.dcache.LoadLockedReq_hits::.cpu1.data      1550571                       # number of LoadLockedReq hits
system.cpu1.dcache.LoadLockedReq_hits::total      1550571                       # number of LoadLockedReq hits
system.cpu1.dcache.LoadLockedReq_misses::.cpu1.data        23408                       # number of LoadLockedReq misses
system.cpu1.dcache.LoadLockedReq_misses::total        23408                       # number of LoadLockedReq misses
system.cpu1.dcache.LoadLockedReq_miss_latency::.cpu1.data    573722000                       # number of LoadLockedReq miss cycles
system.cpu1.dcache.LoadLockedReq_miss_latency::total    573722000                       # number of LoadLockedReq miss cycles
system.cpu1.dcache.LoadLockedReq_accesses::.cpu1.data      1573979                       # number of LoadLockedReq accesses(hits+misses)
system.cpu1.dcache.LoadLockedReq_accesses::total      1573979                       # number of LoadLockedReq accesses(hits+misses)
system.cpu1.dcache.LoadLockedReq_miss_rate::.cpu1.data     0.014872                       # miss rate for LoadLockedReq accesses
system.cpu1.dcache.LoadLockedReq_miss_rate::total     0.014872                       # miss rate for LoadLockedReq accesses
system.cpu1.dcache.LoadLockedReq_avg_miss_latency::.cpu1.data 24509.654819                       # average LoadLockedReq miss latency
system.cpu1.dcache.LoadLockedReq_avg_miss_latency::total 24509.654819                       # average LoadLockedReq miss latency
system.cpu1.dcache.LoadLockedReq_mshr_hits::.cpu1.data          125                       # number of LoadLockedReq MSHR hits
system.cpu1.dcache.LoadLockedReq_mshr_hits::total          125                       # number of LoadLockedReq MSHR hits
system.cpu1.dcache.LoadLockedReq_mshr_misses::.cpu1.data        23283                       # number of LoadLockedReq MSHR misses
system.cpu1.dcache.LoadLockedReq_mshr_misses::total        23283                       # number of LoadLockedReq MSHR misses
system.cpu1.dcache.LoadLockedReq_mshr_miss_latency::.cpu1.data    543121500                       # number of LoadLockedReq MSHR miss cycles
system.cpu1.dcache.LoadLockedReq_mshr_miss_latency::total    543121500                       # number of LoadLockedReq MSHR miss cycles
system.cpu1.dcache.LoadLockedReq_mshr_miss_rate::.cpu1.data     0.014792                       # mshr miss rate for LoadLockedReq accesses
system.cpu1.dcache.LoadLockedReq_mshr_miss_rate::total     0.014792                       # mshr miss rate for LoadLockedReq accesses
system.cpu1.dcache.LoadLockedReq_avg_mshr_miss_latency::.cpu1.data 23326.955289                       # average LoadLockedReq mshr miss latency
system.cpu1.dcache.LoadLockedReq_avg_mshr_miss_latency::total 23326.955289                       # average LoadLockedReq mshr miss latency
system.cpu1.dcache.StoreCondReq_hits::.cpu1.data      1573517                       # number of StoreCondReq hits
system.cpu1.dcache.StoreCondReq_hits::total      1573517                       # number of StoreCondReq hits
system.cpu1.dcache.StoreCondReq_misses::.cpu1.data          342                       # number of StoreCondReq misses
system.cpu1.dcache.StoreCondReq_misses::total          342                       # number of StoreCondReq misses
system.cpu1.dcache.StoreCondReq_miss_latency::.cpu1.data      2088500                       # number of StoreCondReq miss cycles
system.cpu1.dcache.StoreCondReq_miss_latency::total      2088500                       # number of StoreCondReq miss cycles
system.cpu1.dcache.StoreCondReq_accesses::.cpu1.data      1573859                       # number of StoreCondReq accesses(hits+misses)
system.cpu1.dcache.StoreCondReq_accesses::total      1573859                       # number of StoreCondReq accesses(hits+misses)
system.cpu1.dcache.StoreCondReq_miss_rate::.cpu1.data     0.000217                       # miss rate for StoreCondReq accesses
system.cpu1.dcache.StoreCondReq_miss_rate::total     0.000217                       # miss rate for StoreCondReq accesses
system.cpu1.dcache.StoreCondReq_avg_miss_latency::.cpu1.data  6106.725146                       # average StoreCondReq miss latency
system.cpu1.dcache.StoreCondReq_avg_miss_latency::total  6106.725146                       # average StoreCondReq miss latency
system.cpu1.dcache.StoreCondReq_mshr_misses::.cpu1.data          342                       # number of StoreCondReq MSHR misses
system.cpu1.dcache.StoreCondReq_mshr_misses::total          342                       # number of StoreCondReq MSHR misses
system.cpu1.dcache.StoreCondReq_mshr_miss_latency::.cpu1.data      1746500                       # number of StoreCondReq MSHR miss cycles
system.cpu1.dcache.StoreCondReq_mshr_miss_latency::total      1746500                       # number of StoreCondReq MSHR miss cycles
system.cpu1.dcache.StoreCondReq_mshr_miss_rate::.cpu1.data     0.000217                       # mshr miss rate for StoreCondReq accesses
system.cpu1.dcache.StoreCondReq_mshr_miss_rate::total     0.000217                       # mshr miss rate for StoreCondReq accesses
system.cpu1.dcache.StoreCondReq_avg_mshr_miss_latency::.cpu1.data  5106.725146                       # average StoreCondReq mshr miss latency
system.cpu1.dcache.StoreCondReq_avg_mshr_miss_latency::total  5106.725146                       # average StoreCondReq mshr miss latency
system.cpu1.dcache.SwapReq_hits::.cpu1.data          514                       # number of SwapReq hits
system.cpu1.dcache.SwapReq_hits::total            514                       # number of SwapReq hits
system.cpu1.dcache.SwapReq_misses::.cpu1.data         1000                       # number of SwapReq misses
system.cpu1.dcache.SwapReq_misses::total         1000                       # number of SwapReq misses
system.cpu1.dcache.SwapReq_miss_latency::.cpu1.data     22988000                       # number of SwapReq miss cycles
system.cpu1.dcache.SwapReq_miss_latency::total     22988000                       # number of SwapReq miss cycles
system.cpu1.dcache.SwapReq_accesses::.cpu1.data         1514                       # number of SwapReq accesses(hits+misses)
system.cpu1.dcache.SwapReq_accesses::total         1514                       # number of SwapReq accesses(hits+misses)
system.cpu1.dcache.SwapReq_miss_rate::.cpu1.data     0.660502                       # miss rate for SwapReq accesses
system.cpu1.dcache.SwapReq_miss_rate::total     0.660502                       # miss rate for SwapReq accesses
system.cpu1.dcache.SwapReq_avg_miss_latency::.cpu1.data        22988                       # average SwapReq miss latency
system.cpu1.dcache.SwapReq_avg_miss_latency::total        22988                       # average SwapReq miss latency
system.cpu1.dcache.SwapReq_mshr_misses::.cpu1.data         1000                       # number of SwapReq MSHR misses
system.cpu1.dcache.SwapReq_mshr_misses::total         1000                       # number of SwapReq MSHR misses
system.cpu1.dcache.SwapReq_mshr_miss_latency::.cpu1.data     21988000                       # number of SwapReq MSHR miss cycles
system.cpu1.dcache.SwapReq_mshr_miss_latency::total     21988000                       # number of SwapReq MSHR miss cycles
system.cpu1.dcache.SwapReq_mshr_miss_rate::.cpu1.data     0.660502                       # mshr miss rate for SwapReq accesses
system.cpu1.dcache.SwapReq_mshr_miss_rate::total     0.660502                       # mshr miss rate for SwapReq accesses
system.cpu1.dcache.SwapReq_avg_mshr_miss_latency::.cpu1.data        21988                       # average SwapReq mshr miss latency
system.cpu1.dcache.SwapReq_avg_mshr_miss_latency::total        21988                       # average SwapReq mshr miss latency
system.cpu1.dcache.tags.pwrStateResidencyTicks::UNDEFINED 242245012500                       # Cumulative time (in ticks) in various power states
system.cpu1.dcache.tags.tagsinuse           31.931738                       # Cycle average of tags in use
system.cpu1.dcache.tags.total_refs           44420335                       # Total number of references to valid blocks.
system.cpu1.dcache.tags.sampled_refs          3095709                       # Sample count of references to valid blocks.
system.cpu1.dcache.tags.avg_refs            14.349002                       # Average number of references to valid blocks.
system.cpu1.dcache.tags.warmup_cycle                0                       # Cycle when the warmup percentage was hit.
system.cpu1.dcache.tags.occ_blocks::.cpu1.data    31.931738                       # Average occupied blocks per requestor
system.cpu1.dcache.tags.occ_percent::.cpu1.data     0.997867                       # Average percentage of cache occupancy
system.cpu1.dcache.tags.occ_percent::total     0.997867                       # Average percentage of cache occupancy
system.cpu1.dcache.tags.occ_task_id_blocks::1024           28                       # Occupied blocks per task id
system.cpu1.dcache.tags.age_task_id_blocks_1024::1           28                       # Occupied blocks per task id
system.cpu1.dcache.tags.occ_task_id_percent::1024     0.875000                       # Percentage of cache occupancy per task id
system.cpu1.dcache.tags.tag_accesses        105479884                       # Number of tag accesses
system.cpu1.dcache.tags.data_accesses       105479884                       # Number of data accesses
system.cpu_clk_domain.clock                       500                       # Clock period in ticks
system.tol2bus.pwrStateResidencyTicks::UNDEFINED 242245012500                       # Cumulative time (in ticks) in various power states
system.tol2bus.trans_dist::ReadResp           7108235                       # Transaction distribution
system.tol2bus.trans_dist::WritebackDirty      1065968                       # Transaction distribution
system.tol2bus.trans_dist::WritebackClean      6752252                       # Transaction distribution
system.tol2bus.trans_dist::CleanEvict        14913299                       # Transaction distribution
system.tol2bus.trans_dist::HardPFReq          6675227                       # Transaction distribution
system.tol2bus.trans_dist::UpgradeReq            1036                       # Transaction distribution
system.tol2bus.trans_dist::SCUpgradeReq           780                       # Transaction distribution
system.tol2bus.trans_dist::UpgradeResp           1816                       # Transaction distribution
system.tol2bus.trans_dist::SCUpgradeFailReq            1                       # Transaction distribution
system.tol2bus.trans_dist::UpgradeFailResp            1                       # Transaction distribution
system.tol2bus.trans_dist::ReadExReq           207361                       # Transaction distribution
system.tol2bus.trans_dist::ReadExResp          207361                       # Transaction distribution
system.tol2bus.trans_dist::ReadCleanReq        112026                       # Transaction distribution
system.tol2bus.trans_dist::ReadSharedReq      6996209                       # Transaction distribution
system.tol2bus.pkt_count_system.cpu0.icache.mem_side::system.l2.cpu_side       321783                       # Packet count per connected master and slave (bytes)
system.tol2bus.pkt_count_system.cpu0.dcache.mem_side::system.l2.cpu_side     12321937                       # Packet count per connected master and slave (bytes)
system.tol2bus.pkt_count_system.cpu1.icache.mem_side::system.l2.cpu_side        14295                       # Packet count per connected master and slave (bytes)
system.tol2bus.pkt_count_system.cpu1.dcache.mem_side::system.l2.cpu_side      9284871                       # Packet count per connected master and slave (bytes)
system.tol2bus.pkt_count::total              21942886                       # Packet count per connected master and slave (bytes)
system.tol2bus.pkt_size_system.cpu0.icache.mem_side::system.l2.cpu_side     13729408                       # Cumulative packet size per connected master and slave (bytes)
system.tol2bus.pkt_size_system.cpu0.dcache.mem_side::system.l2.cpu_side    525624640                       # Cumulative packet size per connected master and slave (bytes)
system.tol2bus.pkt_size_system.cpu1.icache.mem_side::system.l2.cpu_side       609920                       # Cumulative packet size per connected master and slave (bytes)
system.tol2bus.pkt_size_system.cpu1.dcache.mem_side::system.l2.cpu_side    396049344                       # Cumulative packet size per connected master and slave (bytes)
system.tol2bus.pkt_size::total              936013312                       # Cumulative packet size per connected master and slave (bytes)
system.tol2bus.snoops                        22098686                       # Total snoops (count)
system.tol2bus.snoopTraffic                  32550976                       # Total snoop traffic (bytes)
system.tol2bus.snoop_fanout::samples         29411612                       # Request fanout histogram
system.tol2bus.snoop_fanout::mean            0.213909                       # Request fanout histogram
system.tol2bus.snoop_fanout::stdev           0.418697                       # Request fanout histogram
system.tol2bus.snoop_fanout::underflows             0      0.00%      0.00% # Request fanout histogram
system.tol2bus.snoop_fanout::0               23225433     78.97%     78.97% # Request fanout histogram
system.tol2bus.snoop_fanout::1                6080953     20.68%     99.64% # Request fanout histogram
system.tol2bus.snoop_fanout::2                 105225      0.36%    100.00% # Request fanout histogram
system.tol2bus.snoop_fanout::3                      1      0.00%    100.00% # Request fanout histogram
system.tol2bus.snoop_fanout::4                      0      0.00%    100.00% # Request fanout histogram
system.tol2bus.snoop_fanout::5                      0      0.00%    100.00% # Request fanout histogram
system.tol2bus.snoop_fanout::6                      0      0.00%    100.00% # Request fanout histogram
system.tol2bus.snoop_fanout::7                      0      0.00%    100.00% # Request fanout histogram
system.tol2bus.snoop_fanout::8                      0      0.00%    100.00% # Request fanout histogram
system.tol2bus.snoop_fanout::overflows              0      0.00%    100.00% # Request fanout histogram
system.tol2bus.snoop_fanout::min_value              0                       # Request fanout histogram
system.tol2bus.snoop_fanout::max_value              3                       # Request fanout histogram
system.tol2bus.snoop_fanout::total           29411612                       # Request fanout histogram
system.tol2bus.reqLayer0.occupancy        14627666418                       # Layer occupancy (ticks)
system.tol2bus.reqLayer0.utilization              6.0                       # Layer utilization (%)
system.tol2bus.respLayer1.occupancy        6164453276                       # Layer occupancy (ticks)
system.tol2bus.respLayer1.utilization             2.5                       # Layer utilization (%)
system.tol2bus.respLayer0.occupancy         160903476                       # Layer occupancy (ticks)
system.tol2bus.respLayer0.utilization             0.1                       # Layer utilization (%)
system.tol2bus.respLayer3.occupancy        4646635564                       # Layer occupancy (ticks)
system.tol2bus.respLayer3.utilization             1.9                       # Layer utilization (%)
system.tol2bus.respLayer2.occupancy           7171452                       # Layer occupancy (ticks)
system.tol2bus.respLayer2.utilization             0.0                       # Layer utilization (%)

---------- End Simulation Statistics   ----------
