
---------- Begin Simulation Statistics ----------
final_tick                               581148151500                       # Number of ticks from beginning of simulation (restored from checkpoints and never reset)
host_inst_rate                                  74183                       # Simulator instruction rate (inst/s)
host_mem_usage                                 701596                       # Number of bytes of host memory used
host_op_rate                                    74430                       # Simulator op (including micro ops) rate (op/s)
host_seconds                                  8257.75                       # Real time elapsed on the host
host_tick_rate                               70376073                       # Simulator tick rate (ticks/s)
sim_freq                                 1000000000000                       # Frequency of simulated ticks
sim_insts                                   612585756                       # Number of instructions simulated
sim_ops                                     614623319                       # Number of ops (including micro ops) simulated
sim_seconds                                  0.581148                       # Number of seconds simulated
sim_ticks                                581148151500                       # Number of ticks simulated
system.cpu0.branchPred.BTBCorrect                   0                       # Number of correct BTB predictions (this stat may not work properly.
system.cpu0.branchPred.BTBHitPct            86.548395                       # BTB Hit Percentage
system.cpu0.branchPred.BTBHits               78305617                       # Number of BTB hits
system.cpu0.branchPred.BTBLookups            90476105                       # Number of BTB lookups
system.cpu0.branchPred.RASInCorrect                 0                       # Number of incorrect RAS predictions.
system.cpu0.branchPred.condIncorrect          7153461                       # Number of conditional branches incorrect
system.cpu0.branchPred.condPredicted        122855988                       # Number of conditional branches predicted
system.cpu0.branchPred.indirectHits          11226078                       # Number of indirect target hits.
system.cpu0.branchPred.indirectLookups       11373862                       # Number of indirect predictor lookups.
system.cpu0.branchPred.indirectMisses          147784                       # Number of indirect misses.
system.cpu0.branchPred.lookups              157674818                       # Number of BP lookups
system.cpu0.branchPred.usedRAS                      0                       # Number of times the RAS was used to get a target.
system.cpu0.branchPredindirectMispredicted      1062241                       # Number of mispredicted indirect branches.
system.cpu0.commit.amos                       1018166                       # Number of atomic instructions committed
system.cpu0.commit.branchMispredicts          4996923                       # The number of times a branch was mispredicted
system.cpu0.commit.branches                 143210930                       # Number of branches committed
system.cpu0.commit.bw_lim_events             16377655                       # number cycles where commit BW limit reached
system.cpu0.commit.commitNonSpecStalls        3058402                       # The number of times commit has been forced to stall to communicate backwards
system.cpu0.commit.commitSquashedInsts       45442900                       # The number of squashed insts skipped by commit
system.cpu0.commit.committedInsts           580321368                       # Number of instructions committed
system.cpu0.commit.committedOps             581340837                       # Number of ops (including micro ops) committed
system.cpu0.commit.committed_per_cycle::samples   1042905125                       # Number of insts commited each cycle
system.cpu0.commit.committed_per_cycle::mean     0.557424                       # Number of insts commited each cycle
system.cpu0.commit.committed_per_cycle::stdev     1.307627                       # Number of insts commited each cycle
system.cpu0.commit.committed_per_cycle::underflows            0      0.00%      0.00% # Number of insts commited each cycle
system.cpu0.commit.committed_per_cycle::0    753269077     72.23%     72.23% # Number of insts commited each cycle
system.cpu0.commit.committed_per_cycle::1    177851518     17.05%     89.28% # Number of insts commited each cycle
system.cpu0.commit.committed_per_cycle::2     42157364      4.04%     93.32% # Number of insts commited each cycle
system.cpu0.commit.committed_per_cycle::3     36254200      3.48%     96.80% # Number of insts commited each cycle
system.cpu0.commit.committed_per_cycle::4     10299215      0.99%     97.79% # Number of insts commited each cycle
system.cpu0.commit.committed_per_cycle::5      3146787      0.30%     98.09% # Number of insts commited each cycle
system.cpu0.commit.committed_per_cycle::6      2385207      0.23%     98.32% # Number of insts commited each cycle
system.cpu0.commit.committed_per_cycle::7      1164102      0.11%     98.43% # Number of insts commited each cycle
system.cpu0.commit.committed_per_cycle::8     16377655      1.57%    100.00% # Number of insts commited each cycle
system.cpu0.commit.committed_per_cycle::overflows            0      0.00%    100.00% # Number of insts commited each cycle
system.cpu0.commit.committed_per_cycle::min_value            0                       # Number of insts commited each cycle
system.cpu0.commit.committed_per_cycle::max_value            8                       # Number of insts commited each cycle
system.cpu0.commit.committed_per_cycle::total   1042905125                       # Number of insts commited each cycle
system.cpu0.commit.fp_insts                        50                       # Number of committed floating point instructions.
system.cpu0.commit.function_calls            11887532                       # Number of function calls committed.
system.cpu0.commit.int_insts                561322323                       # Number of committed integer instructions.
system.cpu0.commit.loads                    179958671                       # Number of loads committed
system.cpu0.commit.membars                    2037563                       # Number of memory barriers committed
system.cpu0.commit.op_class_0::No_OpClass      2037569      0.35%      0.35% # Class of committed instruction
system.cpu0.commit.op_class_0::IntAlu       322248092     55.43%     55.78% # Class of committed instruction
system.cpu0.commit.op_class_0::IntMult        4137061      0.71%     56.49% # Class of committed instruction
system.cpu0.commit.op_class_0::IntDiv         1017775      0.18%     56.67% # Class of committed instruction
system.cpu0.commit.op_class_0::FloatAdd             0      0.00%     56.67% # Class of committed instruction
system.cpu0.commit.op_class_0::FloatCmp             4      0.00%     56.67% # Class of committed instruction
system.cpu0.commit.op_class_0::FloatCvt            12      0.00%     56.67% # Class of committed instruction
system.cpu0.commit.op_class_0::FloatMult            0      0.00%     56.67% # Class of committed instruction
system.cpu0.commit.op_class_0::FloatMultAcc            0      0.00%     56.67% # Class of committed instruction
system.cpu0.commit.op_class_0::FloatDiv             2      0.00%     56.67% # Class of committed instruction
system.cpu0.commit.op_class_0::FloatMisc            4      0.00%     56.67% # Class of committed instruction
system.cpu0.commit.op_class_0::FloatSqrt            0      0.00%     56.67% # Class of committed instruction
system.cpu0.commit.op_class_0::SimdAdd              0      0.00%     56.67% # Class of committed instruction
system.cpu0.commit.op_class_0::SimdAddAcc            0      0.00%     56.67% # Class of committed instruction
system.cpu0.commit.op_class_0::SimdAlu              0      0.00%     56.67% # Class of committed instruction
system.cpu0.commit.op_class_0::SimdCmp              0      0.00%     56.67% # Class of committed instruction
system.cpu0.commit.op_class_0::SimdCvt              0      0.00%     56.67% # Class of committed instruction
system.cpu0.commit.op_class_0::SimdMisc             0      0.00%     56.67% # Class of committed instruction
system.cpu0.commit.op_class_0::SimdMult             0      0.00%     56.67% # Class of committed instruction
system.cpu0.commit.op_class_0::SimdMultAcc            0      0.00%     56.67% # Class of committed instruction
system.cpu0.commit.op_class_0::SimdShift            0      0.00%     56.67% # Class of committed instruction
system.cpu0.commit.op_class_0::SimdShiftAcc            0      0.00%     56.67% # Class of committed instruction
system.cpu0.commit.op_class_0::SimdDiv              0      0.00%     56.67% # Class of committed instruction
system.cpu0.commit.op_class_0::SimdSqrt             0      0.00%     56.67% # Class of committed instruction
system.cpu0.commit.op_class_0::SimdFloatAdd            0      0.00%     56.67% # Class of committed instruction
system.cpu0.commit.op_class_0::SimdFloatAlu            0      0.00%     56.67% # Class of committed instruction
system.cpu0.commit.op_class_0::SimdFloatCmp            0      0.00%     56.67% # Class of committed instruction
system.cpu0.commit.op_class_0::SimdFloatCvt            0      0.00%     56.67% # Class of committed instruction
system.cpu0.commit.op_class_0::SimdFloatDiv            0      0.00%     56.67% # Class of committed instruction
system.cpu0.commit.op_class_0::SimdFloatMisc            0      0.00%     56.67% # Class of committed instruction
system.cpu0.commit.op_class_0::SimdFloatMult            0      0.00%     56.67% # Class of committed instruction
system.cpu0.commit.op_class_0::SimdFloatMultAcc            0      0.00%     56.67% # Class of committed instruction
system.cpu0.commit.op_class_0::SimdFloatSqrt            0      0.00%     56.67% # Class of committed instruction
system.cpu0.commit.op_class_0::SimdReduceAdd            0      0.00%     56.67% # Class of committed instruction
system.cpu0.commit.op_class_0::SimdReduceAlu            0      0.00%     56.67% # Class of committed instruction
system.cpu0.commit.op_class_0::SimdReduceCmp            0      0.00%     56.67% # Class of committed instruction
system.cpu0.commit.op_class_0::SimdFloatReduceAdd            0      0.00%     56.67% # Class of committed instruction
system.cpu0.commit.op_class_0::SimdFloatReduceCmp            0      0.00%     56.67% # Class of committed instruction
system.cpu0.commit.op_class_0::SimdAes              0      0.00%     56.67% # Class of committed instruction
system.cpu0.commit.op_class_0::SimdAesMix            0      0.00%     56.67% # Class of committed instruction
system.cpu0.commit.op_class_0::SimdSha1Hash            0      0.00%     56.67% # Class of committed instruction
system.cpu0.commit.op_class_0::SimdSha1Hash2            0      0.00%     56.67% # Class of committed instruction
system.cpu0.commit.op_class_0::SimdSha256Hash            0      0.00%     56.67% # Class of committed instruction
system.cpu0.commit.op_class_0::SimdSha256Hash2            0      0.00%     56.67% # Class of committed instruction
system.cpu0.commit.op_class_0::SimdShaSigma2            0      0.00%     56.67% # Class of committed instruction
system.cpu0.commit.op_class_0::SimdShaSigma3            0      0.00%     56.67% # Class of committed instruction
system.cpu0.commit.op_class_0::SimdPredAlu            0      0.00%     56.67% # Class of committed instruction
system.cpu0.commit.op_class_0::MemRead      180976829     31.13%     87.80% # Class of committed instruction
system.cpu0.commit.op_class_0::MemWrite      70923461     12.20%    100.00% # Class of committed instruction
system.cpu0.commit.op_class_0::FloatMemRead            8      0.00%    100.00% # Class of committed instruction
system.cpu0.commit.op_class_0::FloatMemWrite           20      0.00%    100.00% # Class of committed instruction
system.cpu0.commit.op_class_0::IprAccess            0      0.00%    100.00% # Class of committed instruction
system.cpu0.commit.op_class_0::InstPrefetch            0      0.00%    100.00% # Class of committed instruction
system.cpu0.commit.op_class_0::total        581340837                       # Class of committed instruction
system.cpu0.commit.refs                     251900318                       # Number of memory references committed
system.cpu0.commit.swp_count                        0                       # Number of s/w prefetches committed
system.cpu0.commit.vec_insts                        0                       # Number of committed Vector instructions.
system.cpu0.committedInsts                  580321368                       # Number of Instructions Simulated
system.cpu0.committedOps                    581340837                       # Number of Ops (including micro ops) Simulated
system.cpu0.cpi                              1.987492                       # CPI: Cycles Per Instruction
system.cpu0.cpi_total                        1.987492                       # CPI: Total CPI of All Threads
system.cpu0.decode.BlockedCycles            190677475                       # Number of cycles decode is blocked
system.cpu0.decode.BranchMispred              2168363                       # Number of times decode detected a branch misprediction
system.cpu0.decode.BranchResolved            77495638                       # Number of times decode resolved a branch
system.cpu0.decode.DecodedInsts             642660402                       # Number of instructions handled by decode
system.cpu0.decode.IdleCycles               409693491                       # Number of cycles decode is idle
system.cpu0.decode.RunCycles                443306409                       # Number of cycles decode is running
system.cpu0.decode.SquashCycles               5002818                       # Number of cycles decode is squashing
system.cpu0.decode.SquashedInsts              7253455                       # Number of squashed instructions handled by decode
system.cpu0.decode.UnblockCycles              3242614                       # Number of cycles decode is unblocking
system.cpu0.dtb.accesses                            0                       # DTB accesses
system.cpu0.dtb.hits                                0                       # DTB hits
system.cpu0.dtb.misses                              0                       # DTB misses
system.cpu0.dtb.read_accesses                       0                       # DTB read accesses
system.cpu0.dtb.read_hits                           0                       # DTB read hits
system.cpu0.dtb.read_misses                         0                       # DTB read misses
system.cpu0.dtb.write_accesses                      0                       # DTB write accesses
system.cpu0.dtb.write_hits                          0                       # DTB write hits
system.cpu0.dtb.write_misses                        0                       # DTB write misses
system.cpu0.fetch.Branches                  157674818                       # Number of branches that fetch encountered
system.cpu0.fetch.CacheLines                 98874393                       # Number of cache lines fetched
system.cpu0.fetch.Cycles                    636052574                       # Number of cycles fetch has run and was not squashing or blocked
system.cpu0.fetch.IcacheSquashes              1968372                       # Number of outstanding Icache misses that were squashed
system.cpu0.fetch.IcacheWaitRetryStallCycles           75                       # Number of stall cycles due to full MSHR
system.cpu0.fetch.Insts                     655354453                       # Number of instructions fetch has processed
system.cpu0.fetch.MiscStallCycles                   9                       # Number of cycles fetch has spent waiting on interrupts, or bad addresses, or out of MSHRs
system.cpu0.fetch.PendingTrapStallCycles            6                       # Number of stall cycles due to pending traps
system.cpu0.fetch.SquashCycles               14318714                       # Number of cycles fetch has spent squashing
system.cpu0.fetch.branchRate                 0.136706                       # Number of branch fetches per cycle
system.cpu0.fetch.icacheStallCycles         408710786                       # Number of cycles fetch is stalled on an Icache miss
system.cpu0.fetch.predictedBranches          89531695                       # Number of branches that fetch has predicted taken
system.cpu0.fetch.rate                       0.568201                       # Number of inst fetches per cycle
system.cpu0.fetch.rateDist::samples        1051922807                       # Number of instructions fetched each cycle (Total)
system.cpu0.fetch.rateDist::mean             0.623976                       # Number of instructions fetched each cycle (Total)
system.cpu0.fetch.rateDist::stdev            0.903012                       # Number of instructions fetched each cycle (Total)
system.cpu0.fetch.rateDist::underflows              0      0.00%      0.00% # Number of instructions fetched each cycle (Total)
system.cpu0.fetch.rateDist::0               587497931     55.85%     55.85% # Number of instructions fetched each cycle (Total)
system.cpu0.fetch.rateDist::1               345053450     32.80%     88.65% # Number of instructions fetched each cycle (Total)
system.cpu0.fetch.rateDist::2                68968578      6.56%     95.21% # Number of instructions fetched each cycle (Total)
system.cpu0.fetch.rateDist::3                37779853      3.59%     98.80% # Number of instructions fetched each cycle (Total)
system.cpu0.fetch.rateDist::4                 8211181      0.78%     99.58% # Number of instructions fetched each cycle (Total)
system.cpu0.fetch.rateDist::5                 2333787      0.22%     99.80% # Number of instructions fetched each cycle (Total)
system.cpu0.fetch.rateDist::6                   37438      0.00%     99.81% # Number of instructions fetched each cycle (Total)
system.cpu0.fetch.rateDist::7                 1018892      0.10%     99.90% # Number of instructions fetched each cycle (Total)
system.cpu0.fetch.rateDist::8                 1021697      0.10%    100.00% # Number of instructions fetched each cycle (Total)
system.cpu0.fetch.rateDist::overflows               0      0.00%    100.00% # Number of instructions fetched each cycle (Total)
system.cpu0.fetch.rateDist::min_value               0                       # Number of instructions fetched each cycle (Total)
system.cpu0.fetch.rateDist::max_value               8                       # Number of instructions fetched each cycle (Total)
system.cpu0.fetch.rateDist::total          1051922807                       # Number of instructions fetched each cycle (Total)
system.cpu0.fp_regfile_reads                       44                       # number of floating regfile reads
system.cpu0.fp_regfile_writes                      23                       # number of floating regfile writes
system.cpu0.idleCycles                      101461388                       # Total number of cycles that the CPU has spent unscheduled due to idling
system.cpu0.iew.branchMispredicts             5103596                       # Number of branch mispredicts detected at execute
system.cpu0.iew.exec_branches               149380224                       # Number of branches executed
system.cpu0.iew.exec_nop                            0                       # number of nop insts executed
system.cpu0.iew.exec_rate                    0.537982                       # Inst execution rate
system.cpu0.iew.exec_refs                   275961490                       # number of memory reference insts executed
system.cpu0.iew.exec_stores                  76972003                       # Number of stores executed
system.cpu0.iew.exec_swp                            0                       # number of swp insts executed
system.cpu0.iew.iewBlockCycles              156904869                       # Number of cycles IEW is blocking
system.cpu0.iew.iewDispLoadInsts            199381283                       # Number of dispatched load instructions
system.cpu0.iew.iewDispNonSpecInsts           1021608                       # Number of dispatched non-speculative instructions
system.cpu0.iew.iewDispSquashedInsts          3430518                       # Number of squashed instructions skipped by dispatch
system.cpu0.iew.iewDispStoreInsts            77671316                       # Number of dispatched store instructions
system.cpu0.iew.iewDispatchedInsts          626763349                       # Number of instructions dispatched to IQ
system.cpu0.iew.iewExecLoadInsts            198989487                       # Number of load instructions executed
system.cpu0.iew.iewExecSquashedInsts          3746530                       # Number of squashed instructions skipped in execute
system.cpu0.iew.iewExecutedInsts            620500315                       # Number of executed instructions
system.cpu0.iew.iewIQFullEvents                883253                       # Number of times the IQ has become full, causing a stall
system.cpu0.iew.iewIdleCycles                       0                       # Number of cycles IEW is idle
system.cpu0.iew.iewLSQFullEvents              4062262                       # Number of times the LSQ has become full, causing a stall
system.cpu0.iew.iewSquashCycles               5002818                       # Number of cycles IEW is squashing
system.cpu0.iew.iewUnblockCycles              6166911                       # Number of cycles IEW is unblocking
system.cpu0.iew.lsq.thread0.blockedLoads            0                       # Number of blocked loads due to partial load-store forwarding
system.cpu0.iew.lsq.thread0.cacheBlocked        77352                       # Number of times an access to memory failed due to the cache being blocked
system.cpu0.iew.lsq.thread0.forwLoads        11150334                       # Number of loads that had data forwarded from stores
system.cpu0.iew.lsq.thread0.ignoredResponses         9738                       # Number of memory responses ignored because the instruction is squashed
system.cpu0.iew.lsq.thread0.invAddrLoads            0                       # Number of loads ignored due to an invalid address
system.cpu0.iew.lsq.thread0.invAddrSwpfs            0                       # Number of software prefetches ignored due to an invalid address
system.cpu0.iew.lsq.thread0.memOrderViolation         6205                       # Number of memory ordering violations
system.cpu0.iew.lsq.thread0.rescheduledLoads      2907931                       # Number of loads that were rescheduled
system.cpu0.iew.lsq.thread0.squashedLoads     19422612                       # Number of loads squashed
system.cpu0.iew.lsq.thread0.squashedStores      5729658                       # Number of stores squashed
system.cpu0.iew.memOrderViolationEvents          6205                       # Number of memory order violations
system.cpu0.iew.predictedNotTakenIncorrect       878073                       # Number of branches that were predicted not taken incorrectly
system.cpu0.iew.predictedTakenIncorrect       4225523                       # Number of branches that were predicted taken incorrectly
system.cpu0.iew.wb_consumers                270981869                       # num instructions consuming a value
system.cpu0.iew.wb_count                    613745668                       # cumulative count of insts written-back
system.cpu0.iew.wb_fanout                    0.835314                       # average fanout of values written-back
system.cpu0.iew.wb_producers                226355064                       # num instructions producing a value
system.cpu0.iew.wb_rate                      0.532126                       # insts written-back per cycle
system.cpu0.iew.wb_sent                     613810583                       # cumulative count of insts sent to commit
system.cpu0.int_regfile_reads               756689549                       # number of integer regfile reads
system.cpu0.int_regfile_writes              392043010                       # number of integer regfile writes
system.cpu0.ipc                              0.503147                       # IPC: Instructions Per Cycle
system.cpu0.ipc_total                        0.503147                       # IPC: Total IPC of All Threads
system.cpu0.iq.FU_type_0::No_OpClass          2038407      0.33%      0.33% # Type of FU issued
system.cpu0.iq.FU_type_0::IntAlu            339343701     54.36%     54.69% # Type of FU issued
system.cpu0.iq.FU_type_0::IntMult             4212853      0.67%     55.36% # Type of FU issued
system.cpu0.iq.FU_type_0::IntDiv              1018311      0.16%     55.53% # Type of FU issued
system.cpu0.iq.FU_type_0::FloatAdd                  0      0.00%     55.53% # Type of FU issued
system.cpu0.iq.FU_type_0::FloatCmp                  4      0.00%     55.53% # Type of FU issued
system.cpu0.iq.FU_type_0::FloatCvt                 12      0.00%     55.53% # Type of FU issued
system.cpu0.iq.FU_type_0::FloatMult                 0      0.00%     55.53% # Type of FU issued
system.cpu0.iq.FU_type_0::FloatMultAcc              0      0.00%     55.53% # Type of FU issued
system.cpu0.iq.FU_type_0::FloatDiv                  2      0.00%     55.53% # Type of FU issued
system.cpu0.iq.FU_type_0::FloatMisc                 4      0.00%     55.53% # Type of FU issued
system.cpu0.iq.FU_type_0::FloatSqrt                 0      0.00%     55.53% # Type of FU issued
system.cpu0.iq.FU_type_0::SimdAdd                   0      0.00%     55.53% # Type of FU issued
system.cpu0.iq.FU_type_0::SimdAddAcc                0      0.00%     55.53% # Type of FU issued
system.cpu0.iq.FU_type_0::SimdAlu                   0      0.00%     55.53% # Type of FU issued
system.cpu0.iq.FU_type_0::SimdCmp                   0      0.00%     55.53% # Type of FU issued
system.cpu0.iq.FU_type_0::SimdCvt                   0      0.00%     55.53% # Type of FU issued
system.cpu0.iq.FU_type_0::SimdMisc                  0      0.00%     55.53% # Type of FU issued
system.cpu0.iq.FU_type_0::SimdMult                  0      0.00%     55.53% # Type of FU issued
system.cpu0.iq.FU_type_0::SimdMultAcc               0      0.00%     55.53% # Type of FU issued
system.cpu0.iq.FU_type_0::SimdShift                 0      0.00%     55.53% # Type of FU issued
system.cpu0.iq.FU_type_0::SimdShiftAcc              0      0.00%     55.53% # Type of FU issued
system.cpu0.iq.FU_type_0::SimdDiv                   0      0.00%     55.53% # Type of FU issued
system.cpu0.iq.FU_type_0::SimdSqrt                  0      0.00%     55.53% # Type of FU issued
system.cpu0.iq.FU_type_0::SimdFloatAdd              0      0.00%     55.53% # Type of FU issued
system.cpu0.iq.FU_type_0::SimdFloatAlu              0      0.00%     55.53% # Type of FU issued
system.cpu0.iq.FU_type_0::SimdFloatCmp              0      0.00%     55.53% # Type of FU issued
system.cpu0.iq.FU_type_0::SimdFloatCvt              0      0.00%     55.53% # Type of FU issued
system.cpu0.iq.FU_type_0::SimdFloatDiv              0      0.00%     55.53% # Type of FU issued
system.cpu0.iq.FU_type_0::SimdFloatMisc             0      0.00%     55.53% # Type of FU issued
system.cpu0.iq.FU_type_0::SimdFloatMult             0      0.00%     55.53% # Type of FU issued
system.cpu0.iq.FU_type_0::SimdFloatMultAcc            0      0.00%     55.53% # Type of FU issued
system.cpu0.iq.FU_type_0::SimdFloatSqrt             0      0.00%     55.53% # Type of FU issued
system.cpu0.iq.FU_type_0::SimdReduceAdd             0      0.00%     55.53% # Type of FU issued
system.cpu0.iq.FU_type_0::SimdReduceAlu             0      0.00%     55.53% # Type of FU issued
system.cpu0.iq.FU_type_0::SimdReduceCmp             0      0.00%     55.53% # Type of FU issued
system.cpu0.iq.FU_type_0::SimdFloatReduceAdd            0      0.00%     55.53% # Type of FU issued
system.cpu0.iq.FU_type_0::SimdFloatReduceCmp            0      0.00%     55.53% # Type of FU issued
system.cpu0.iq.FU_type_0::SimdAes                   0      0.00%     55.53% # Type of FU issued
system.cpu0.iq.FU_type_0::SimdAesMix                0      0.00%     55.53% # Type of FU issued
system.cpu0.iq.FU_type_0::SimdSha1Hash              0      0.00%     55.53% # Type of FU issued
system.cpu0.iq.FU_type_0::SimdSha1Hash2             0      0.00%     55.53% # Type of FU issued
system.cpu0.iq.FU_type_0::SimdSha256Hash            0      0.00%     55.53% # Type of FU issued
system.cpu0.iq.FU_type_0::SimdSha256Hash2            0      0.00%     55.53% # Type of FU issued
system.cpu0.iq.FU_type_0::SimdShaSigma2             0      0.00%     55.53% # Type of FU issued
system.cpu0.iq.FU_type_0::SimdShaSigma3             0      0.00%     55.53% # Type of FU issued
system.cpu0.iq.FU_type_0::SimdPredAlu               0      0.00%     55.53% # Type of FU issued
system.cpu0.iq.FU_type_0::MemRead           201474571     32.27%     87.80% # Type of FU issued
system.cpu0.iq.FU_type_0::MemWrite           76158951     12.20%    100.00% # Type of FU issued
system.cpu0.iq.FU_type_0::FloatMemRead             10      0.00%    100.00% # Type of FU issued
system.cpu0.iq.FU_type_0::FloatMemWrite            20      0.00%    100.00% # Type of FU issued
system.cpu0.iq.FU_type_0::IprAccess                 0      0.00%    100.00% # Type of FU issued
system.cpu0.iq.FU_type_0::InstPrefetch              0      0.00%    100.00% # Type of FU issued
system.cpu0.iq.FU_type_0::total             624246846                       # Type of FU issued
system.cpu0.iq.fp_alu_accesses                     54                       # Number of floating point alu accesses
system.cpu0.iq.fp_inst_queue_reads                106                       # Number of floating instruction queue reads
system.cpu0.iq.fp_inst_queue_wakeup_accesses           51                       # Number of floating instruction queue wakeup accesses
system.cpu0.iq.fp_inst_queue_writes                54                       # Number of floating instruction queue writes
system.cpu0.iq.fu_busy_cnt                    1606927                       # FU busy when requested
system.cpu0.iq.fu_busy_rate                  0.002574                       # FU busy rate (busy events/executed inst)
system.cpu0.iq.fu_full::No_OpClass                  0      0.00%      0.00% # attempts to use FU when none available
system.cpu0.iq.fu_full::IntAlu                 514222     32.00%     32.00% # attempts to use FU when none available
system.cpu0.iq.fu_full::IntMult                     0      0.00%     32.00% # attempts to use FU when none available
system.cpu0.iq.fu_full::IntDiv                      0      0.00%     32.00% # attempts to use FU when none available
system.cpu0.iq.fu_full::FloatAdd                    0      0.00%     32.00% # attempts to use FU when none available
system.cpu0.iq.fu_full::FloatCmp                    0      0.00%     32.00% # attempts to use FU when none available
system.cpu0.iq.fu_full::FloatCvt                    0      0.00%     32.00% # attempts to use FU when none available
system.cpu0.iq.fu_full::FloatMult                   0      0.00%     32.00% # attempts to use FU when none available
system.cpu0.iq.fu_full::FloatMultAcc                0      0.00%     32.00% # attempts to use FU when none available
system.cpu0.iq.fu_full::FloatDiv                    0      0.00%     32.00% # attempts to use FU when none available
system.cpu0.iq.fu_full::FloatMisc                   0      0.00%     32.00% # attempts to use FU when none available
system.cpu0.iq.fu_full::FloatSqrt                   0      0.00%     32.00% # attempts to use FU when none available
system.cpu0.iq.fu_full::SimdAdd                     0      0.00%     32.00% # attempts to use FU when none available
system.cpu0.iq.fu_full::SimdAddAcc                  0      0.00%     32.00% # attempts to use FU when none available
system.cpu0.iq.fu_full::SimdAlu                     0      0.00%     32.00% # attempts to use FU when none available
system.cpu0.iq.fu_full::SimdCmp                     0      0.00%     32.00% # attempts to use FU when none available
system.cpu0.iq.fu_full::SimdCvt                     0      0.00%     32.00% # attempts to use FU when none available
system.cpu0.iq.fu_full::SimdMisc                    0      0.00%     32.00% # attempts to use FU when none available
system.cpu0.iq.fu_full::SimdMult                    0      0.00%     32.00% # attempts to use FU when none available
system.cpu0.iq.fu_full::SimdMultAcc                 0      0.00%     32.00% # attempts to use FU when none available
system.cpu0.iq.fu_full::SimdShift                   0      0.00%     32.00% # attempts to use FU when none available
system.cpu0.iq.fu_full::SimdShiftAcc                0      0.00%     32.00% # attempts to use FU when none available
system.cpu0.iq.fu_full::SimdDiv                     0      0.00%     32.00% # attempts to use FU when none available
system.cpu0.iq.fu_full::SimdSqrt                    0      0.00%     32.00% # attempts to use FU when none available
system.cpu0.iq.fu_full::SimdFloatAdd                0      0.00%     32.00% # attempts to use FU when none available
system.cpu0.iq.fu_full::SimdFloatAlu                0      0.00%     32.00% # attempts to use FU when none available
system.cpu0.iq.fu_full::SimdFloatCmp                0      0.00%     32.00% # attempts to use FU when none available
system.cpu0.iq.fu_full::SimdFloatCvt                0      0.00%     32.00% # attempts to use FU when none available
system.cpu0.iq.fu_full::SimdFloatDiv                0      0.00%     32.00% # attempts to use FU when none available
system.cpu0.iq.fu_full::SimdFloatMisc               0      0.00%     32.00% # attempts to use FU when none available
system.cpu0.iq.fu_full::SimdFloatMult               0      0.00%     32.00% # attempts to use FU when none available
system.cpu0.iq.fu_full::SimdFloatMultAcc            0      0.00%     32.00% # attempts to use FU when none available
system.cpu0.iq.fu_full::SimdFloatSqrt               0      0.00%     32.00% # attempts to use FU when none available
system.cpu0.iq.fu_full::SimdReduceAdd               0      0.00%     32.00% # attempts to use FU when none available
system.cpu0.iq.fu_full::SimdReduceAlu               0      0.00%     32.00% # attempts to use FU when none available
system.cpu0.iq.fu_full::SimdReduceCmp               0      0.00%     32.00% # attempts to use FU when none available
system.cpu0.iq.fu_full::SimdFloatReduceAdd            0      0.00%     32.00% # attempts to use FU when none available
system.cpu0.iq.fu_full::SimdFloatReduceCmp            0      0.00%     32.00% # attempts to use FU when none available
system.cpu0.iq.fu_full::SimdAes                     0      0.00%     32.00% # attempts to use FU when none available
system.cpu0.iq.fu_full::SimdAesMix                  0      0.00%     32.00% # attempts to use FU when none available
system.cpu0.iq.fu_full::SimdSha1Hash                0      0.00%     32.00% # attempts to use FU when none available
system.cpu0.iq.fu_full::SimdSha1Hash2               0      0.00%     32.00% # attempts to use FU when none available
system.cpu0.iq.fu_full::SimdSha256Hash              0      0.00%     32.00% # attempts to use FU when none available
system.cpu0.iq.fu_full::SimdSha256Hash2             0      0.00%     32.00% # attempts to use FU when none available
system.cpu0.iq.fu_full::SimdShaSigma2               0      0.00%     32.00% # attempts to use FU when none available
system.cpu0.iq.fu_full::SimdShaSigma3               0      0.00%     32.00% # attempts to use FU when none available
system.cpu0.iq.fu_full::SimdPredAlu                 0      0.00%     32.00% # attempts to use FU when none available
system.cpu0.iq.fu_full::MemRead                929191     57.82%     89.82% # attempts to use FU when none available
system.cpu0.iq.fu_full::MemWrite               163512     10.18%    100.00% # attempts to use FU when none available
system.cpu0.iq.fu_full::FloatMemRead                0      0.00%    100.00% # attempts to use FU when none available
system.cpu0.iq.fu_full::FloatMemWrite               2      0.00%    100.00% # attempts to use FU when none available
system.cpu0.iq.fu_full::IprAccess                   0      0.00%    100.00% # attempts to use FU when none available
system.cpu0.iq.fu_full::InstPrefetch                0      0.00%    100.00% # attempts to use FU when none available
system.cpu0.iq.int_alu_accesses             623815312                       # Number of integer alu accesses
system.cpu0.iq.int_inst_queue_reads        2302107987                       # Number of integer instruction queue reads
system.cpu0.iq.int_inst_queue_wakeup_accesses    613745617                       # Number of integer instruction queue wakeup accesses
system.cpu0.iq.int_inst_queue_writes        672191023                       # Number of integer instruction queue writes
system.cpu0.iq.iqInstsAdded                 623704019                       # Number of instructions added to the IQ (excludes non-spec)
system.cpu0.iq.iqInstsIssued                624246846                       # Number of instructions issued
system.cpu0.iq.iqNonSpecInstsAdded            3059330                       # Number of non-speculative instructions added to the IQ
system.cpu0.iq.iqSquashedInstsExamined       45422427                       # Number of squashed instructions iterated over during squash; mainly for profiling
system.cpu0.iq.iqSquashedInstsIssued            84668                       # Number of squashed instructions issued
system.cpu0.iq.iqSquashedNonSpecRemoved           928                       # Number of squashed non-spec instructions that were removed
system.cpu0.iq.iqSquashedOperandsExamined     13209602                       # Number of squashed operands that are examined and possibly removed from graph
system.cpu0.iq.issued_per_cycle::samples   1051922807                       # Number of insts issued each cycle
system.cpu0.iq.issued_per_cycle::mean        0.593434                       # Number of insts issued each cycle
system.cpu0.iq.issued_per_cycle::stdev       0.843611                       # Number of insts issued each cycle
system.cpu0.iq.issued_per_cycle::underflows            0      0.00%      0.00% # Number of insts issued each cycle
system.cpu0.iq.issued_per_cycle::0          605506682     57.56%     57.56% # Number of insts issued each cycle
system.cpu0.iq.issued_per_cycle::1          316682745     30.11%     87.67% # Number of insts issued each cycle
system.cpu0.iq.issued_per_cycle::2           95194805      9.05%     96.72% # Number of insts issued each cycle
system.cpu0.iq.issued_per_cycle::3           26070767      2.48%     99.20% # Number of insts issued each cycle
system.cpu0.iq.issued_per_cycle::4            5527239      0.53%     99.72% # Number of insts issued each cycle
system.cpu0.iq.issued_per_cycle::5            1390065      0.13%     99.85% # Number of insts issued each cycle
system.cpu0.iq.issued_per_cycle::6            1039970      0.10%     99.95% # Number of insts issued each cycle
system.cpu0.iq.issued_per_cycle::7             421183      0.04%     99.99% # Number of insts issued each cycle
system.cpu0.iq.issued_per_cycle::8              89351      0.01%    100.00% # Number of insts issued each cycle
system.cpu0.iq.issued_per_cycle::overflows            0      0.00%    100.00% # Number of insts issued each cycle
system.cpu0.iq.issued_per_cycle::min_value            0                       # Number of insts issued each cycle
system.cpu0.iq.issued_per_cycle::max_value            8                       # Number of insts issued each cycle
system.cpu0.iq.issued_per_cycle::total     1051922807                       # Number of insts issued each cycle
system.cpu0.iq.rate                          0.541231                       # Inst issue rate
system.cpu0.iq.vec_alu_accesses                     0                       # Number of vector alu accesses
system.cpu0.iq.vec_inst_queue_reads                 0                       # Number of vector instruction queue reads
system.cpu0.iq.vec_inst_queue_wakeup_accesses            0                       # Number of vector instruction queue wakeup accesses
system.cpu0.iq.vec_inst_queue_writes                0                       # Number of vector instruction queue writes
system.cpu0.itb.accesses                            0                       # DTB accesses
system.cpu0.itb.hits                                0                       # DTB hits
system.cpu0.itb.misses                              0                       # DTB misses
system.cpu0.itb.read_accesses                       0                       # DTB read accesses
system.cpu0.itb.read_hits                           0                       # DTB read hits
system.cpu0.itb.read_misses                         0                       # DTB read misses
system.cpu0.itb.write_accesses                      0                       # DTB write accesses
system.cpu0.itb.write_hits                          0                       # DTB write hits
system.cpu0.itb.write_misses                        0                       # DTB write misses
system.cpu0.memDep0.conflictingLoads         10367690                       # Number of conflicting loads.
system.cpu0.memDep0.conflictingStores          784417                       # Number of conflicting stores.
system.cpu0.memDep0.insertedLoads           199381283                       # Number of loads inserted to the mem dependence unit.
system.cpu0.memDep0.insertedStores           77671316                       # Number of stores inserted to the mem dependence unit.
system.cpu0.misc_regfile_reads                    870                       # number of misc regfile reads
system.cpu0.misc_regfile_writes                    22                       # number of misc regfile writes
system.cpu0.numCycles                      1153384195                       # number of cpu cycles simulated
system.cpu0.numWorkItemsCompleted                   0                       # number of work items this cpu completed
system.cpu0.numWorkItemsStarted                     0                       # number of work items this cpu started
system.cpu0.quiesceCycles                     8912289                       # Total number of cycles that CPU has spent quiesced or waiting for an interrupt
system.cpu0.rename.BlockCycles              170394058                       # Number of cycles rename is blocking
system.cpu0.rename.CommittedMaps            370591079                       # Number of HB maps that are committed
system.cpu0.rename.IQFullEvents               6999644                       # Number of times rename has blocked due to IQ full
system.cpu0.rename.IdleCycles               415925095                       # Number of cycles rename is idle
system.cpu0.rename.LQFullEvents               6657843                       # Number of times rename has blocked due to LQ full
system.cpu0.rename.ROBFullEvents                13698                       # Number of times rename has blocked due to ROB full
system.cpu0.rename.RenameLookups            777885107                       # Number of register rename lookups that rename has made
system.cpu0.rename.RenamedInsts             636826701                       # Number of instructions processed by rename
system.cpu0.rename.RenamedOperands          408873312                       # Number of destination operands rename has renamed
system.cpu0.rename.RunCycles                439744737                       # Number of cycles rename is running
system.cpu0.rename.SQFullEvents               6773189                       # Number of times rename has blocked due to SQ full
system.cpu0.rename.SquashCycles               5002818                       # Number of cycles rename is squashing
system.cpu0.rename.UnblockCycles             20663416                       # Number of cycles rename is unblocking
system.cpu0.rename.UndoneMaps                38282166                       # Number of HB maps that are undone due to squashing
system.cpu0.rename.fp_rename_lookups               44                       # Number of floating rename lookups
system.cpu0.rename.int_rename_lookups       777885063                       # Number of integer rename lookups
system.cpu0.rename.serializeStallCycles        192683                       # count of cycles rename stalled for serializing inst
system.cpu0.rename.serializingInsts              2800                       # count of serializing insts renamed
system.cpu0.rename.skidInsts                 14527465                       # count of insts added to the skid buffer
system.cpu0.rename.tempSerializingInsts          2800                       # count of temporary serializing insts renamed
system.cpu0.rob.rob_reads                  1653300352                       # The number of ROB reads
system.cpu0.rob.rob_writes                 1262595046                       # The number of ROB writes
system.cpu0.timesIdled                       15030760                       # Number of times that the entire CPU went into an idle state and unscheduled itself
system.cpu0.workload.numSyscalls                  837                       # Number of system calls
system.cpu1.branchPred.BTBCorrect                   0                       # Number of correct BTB predictions (this stat may not work properly.
system.cpu1.branchPred.BTBHitPct            71.235111                       # BTB Hit Percentage
system.cpu1.branchPred.BTBHits                4529461                       # Number of BTB hits
system.cpu1.branchPred.BTBLookups             6358467                       # Number of BTB lookups
system.cpu1.branchPred.RASInCorrect                 0                       # Number of incorrect RAS predictions.
system.cpu1.branchPred.condIncorrect           820538                       # Number of conditional branches incorrect
system.cpu1.branchPred.condPredicted          7787250                       # Number of conditional branches predicted
system.cpu1.branchPred.indirectHits            216641                       # Number of indirect target hits.
system.cpu1.branchPred.indirectLookups         373282                       # Number of indirect predictor lookups.
system.cpu1.branchPred.indirectMisses          156641                       # Number of indirect misses.
system.cpu1.branchPred.lookups                8728204                       # Number of BP lookups
system.cpu1.branchPred.usedRAS                      0                       # Number of times the RAS was used to get a target.
system.cpu1.branchPredindirectMispredicted         3210                       # Number of mispredicted indirect branches.
system.cpu1.commit.amos                       1017926                       # Number of atomic instructions committed
system.cpu1.commit.branchMispredicts           485140                       # The number of times a branch was mispredicted
system.cpu1.commit.branches                   7095575                       # Number of branches committed
system.cpu1.commit.bw_lim_events               747014                       # number cycles where commit BW limit reached
system.cpu1.commit.commitNonSpecStalls        3054415                       # The number of times commit has been forced to stall to communicate backwards
system.cpu1.commit.commitSquashedInsts        3629857                       # The number of squashed insts skipped by commit
system.cpu1.commit.committedInsts            32264388                       # Number of instructions committed
system.cpu1.commit.committedOps              33282482                       # Number of ops (including micro ops) committed
system.cpu1.commit.committed_per_cycle::samples    192530800                       # Number of insts commited each cycle
system.cpu1.commit.committed_per_cycle::mean     0.172868                       # Number of insts commited each cycle
system.cpu1.commit.committed_per_cycle::stdev     0.818589                       # Number of insts commited each cycle
system.cpu1.commit.committed_per_cycle::underflows            0      0.00%      0.00% # Number of insts commited each cycle
system.cpu1.commit.committed_per_cycle::0    178572444     92.75%     92.75% # Number of insts commited each cycle
system.cpu1.commit.committed_per_cycle::1      7086630      3.68%     96.43% # Number of insts commited each cycle
system.cpu1.commit.committed_per_cycle::2      2316947      1.20%     97.63% # Number of insts commited each cycle
system.cpu1.commit.committed_per_cycle::3      2038866      1.06%     98.69% # Number of insts commited each cycle
system.cpu1.commit.committed_per_cycle::4       510818      0.27%     98.96% # Number of insts commited each cycle
system.cpu1.commit.committed_per_cycle::5       190737      0.10%     99.06% # Number of insts commited each cycle
system.cpu1.commit.committed_per_cycle::6       999117      0.52%     99.58% # Number of insts commited each cycle
system.cpu1.commit.committed_per_cycle::7        68227      0.04%     99.61% # Number of insts commited each cycle
system.cpu1.commit.committed_per_cycle::8       747014      0.39%    100.00% # Number of insts commited each cycle
system.cpu1.commit.committed_per_cycle::overflows            0      0.00%    100.00% # Number of insts commited each cycle
system.cpu1.commit.committed_per_cycle::min_value            0                       # Number of insts commited each cycle
system.cpu1.commit.committed_per_cycle::max_value            8                       # Number of insts commited each cycle
system.cpu1.commit.committed_per_cycle::total    192530800                       # Number of insts commited each cycle
system.cpu1.commit.fp_insts                        12                       # Number of committed floating point instructions.
system.cpu1.commit.function_calls              320844                       # Number of function calls committed.
system.cpu1.commit.int_insts                 31049282                       # Number of committed integer instructions.
system.cpu1.commit.loads                      9248745                       # Number of loads committed
system.cpu1.commit.membars                    2035970                       # Number of memory barriers committed
system.cpu1.commit.op_class_0::No_OpClass      2035970      6.12%      6.12% # Class of committed instruction
system.cpu1.commit.op_class_0::IntAlu        19083404     57.34%     63.45% # Class of committed instruction
system.cpu1.commit.op_class_0::IntMult             42      0.00%     63.46% # Class of committed instruction
system.cpu1.commit.op_class_0::IntDiv              84      0.00%     63.46% # Class of committed instruction
system.cpu1.commit.op_class_0::FloatAdd             0      0.00%     63.46% # Class of committed instruction
system.cpu1.commit.op_class_0::FloatCmp             0      0.00%     63.46% # Class of committed instruction
system.cpu1.commit.op_class_0::FloatCvt             0      0.00%     63.46% # Class of committed instruction
system.cpu1.commit.op_class_0::FloatMult            0      0.00%     63.46% # Class of committed instruction
system.cpu1.commit.op_class_0::FloatMultAcc            0      0.00%     63.46% # Class of committed instruction
system.cpu1.commit.op_class_0::FloatDiv             0      0.00%     63.46% # Class of committed instruction
system.cpu1.commit.op_class_0::FloatMisc            0      0.00%     63.46% # Class of committed instruction
system.cpu1.commit.op_class_0::FloatSqrt            0      0.00%     63.46% # Class of committed instruction
system.cpu1.commit.op_class_0::SimdAdd              0      0.00%     63.46% # Class of committed instruction
system.cpu1.commit.op_class_0::SimdAddAcc            0      0.00%     63.46% # Class of committed instruction
system.cpu1.commit.op_class_0::SimdAlu              0      0.00%     63.46% # Class of committed instruction
system.cpu1.commit.op_class_0::SimdCmp              0      0.00%     63.46% # Class of committed instruction
system.cpu1.commit.op_class_0::SimdCvt              0      0.00%     63.46% # Class of committed instruction
system.cpu1.commit.op_class_0::SimdMisc             0      0.00%     63.46% # Class of committed instruction
system.cpu1.commit.op_class_0::SimdMult             0      0.00%     63.46% # Class of committed instruction
system.cpu1.commit.op_class_0::SimdMultAcc            0      0.00%     63.46% # Class of committed instruction
system.cpu1.commit.op_class_0::SimdShift            0      0.00%     63.46% # Class of committed instruction
system.cpu1.commit.op_class_0::SimdShiftAcc            0      0.00%     63.46% # Class of committed instruction
system.cpu1.commit.op_class_0::SimdDiv              0      0.00%     63.46% # Class of committed instruction
system.cpu1.commit.op_class_0::SimdSqrt             0      0.00%     63.46% # Class of committed instruction
system.cpu1.commit.op_class_0::SimdFloatAdd            0      0.00%     63.46% # Class of committed instruction
system.cpu1.commit.op_class_0::SimdFloatAlu            0      0.00%     63.46% # Class of committed instruction
system.cpu1.commit.op_class_0::SimdFloatCmp            0      0.00%     63.46% # Class of committed instruction
system.cpu1.commit.op_class_0::SimdFloatCvt            0      0.00%     63.46% # Class of committed instruction
system.cpu1.commit.op_class_0::SimdFloatDiv            0      0.00%     63.46% # Class of committed instruction
system.cpu1.commit.op_class_0::SimdFloatMisc            0      0.00%     63.46% # Class of committed instruction
system.cpu1.commit.op_class_0::SimdFloatMult            0      0.00%     63.46% # Class of committed instruction
system.cpu1.commit.op_class_0::SimdFloatMultAcc            0      0.00%     63.46% # Class of committed instruction
system.cpu1.commit.op_class_0::SimdFloatSqrt            0      0.00%     63.46% # Class of committed instruction
system.cpu1.commit.op_class_0::SimdReduceAdd            0      0.00%     63.46% # Class of committed instruction
system.cpu1.commit.op_class_0::SimdReduceAlu            0      0.00%     63.46% # Class of committed instruction
system.cpu1.commit.op_class_0::SimdReduceCmp            0      0.00%     63.46% # Class of committed instruction
system.cpu1.commit.op_class_0::SimdFloatReduceAdd            0      0.00%     63.46% # Class of committed instruction
system.cpu1.commit.op_class_0::SimdFloatReduceCmp            0      0.00%     63.46% # Class of committed instruction
system.cpu1.commit.op_class_0::SimdAes              0      0.00%     63.46% # Class of committed instruction
system.cpu1.commit.op_class_0::SimdAesMix            0      0.00%     63.46% # Class of committed instruction
system.cpu1.commit.op_class_0::SimdSha1Hash            0      0.00%     63.46% # Class of committed instruction
system.cpu1.commit.op_class_0::SimdSha1Hash2            0      0.00%     63.46% # Class of committed instruction
system.cpu1.commit.op_class_0::SimdSha256Hash            0      0.00%     63.46% # Class of committed instruction
system.cpu1.commit.op_class_0::SimdSha256Hash2            0      0.00%     63.46% # Class of committed instruction
system.cpu1.commit.op_class_0::SimdShaSigma2            0      0.00%     63.46% # Class of committed instruction
system.cpu1.commit.op_class_0::SimdShaSigma3            0      0.00%     63.46% # Class of committed instruction
system.cpu1.commit.op_class_0::SimdPredAlu            0      0.00%     63.46% # Class of committed instruction
system.cpu1.commit.op_class_0::MemRead       10266671     30.85%     94.30% # Class of committed instruction
system.cpu1.commit.op_class_0::MemWrite       1896299      5.70%    100.00% # Class of committed instruction
system.cpu1.commit.op_class_0::FloatMemRead            0      0.00%    100.00% # Class of committed instruction
system.cpu1.commit.op_class_0::FloatMemWrite           12      0.00%    100.00% # Class of committed instruction
system.cpu1.commit.op_class_0::IprAccess            0      0.00%    100.00% # Class of committed instruction
system.cpu1.commit.op_class_0::InstPrefetch            0      0.00%    100.00% # Class of committed instruction
system.cpu1.commit.op_class_0::total         33282482                       # Class of committed instruction
system.cpu1.commit.refs                      12162982                       # Number of memory references committed
system.cpu1.commit.swp_count                        0                       # Number of s/w prefetches committed
system.cpu1.commit.vec_insts                        0                       # Number of committed Vector instructions.
system.cpu1.committedInsts                   32264388                       # Number of Instructions Simulated
system.cpu1.committedOps                     33282482                       # Number of Ops (including micro ops) Simulated
system.cpu1.cpi                              5.998506                       # CPI: Cycles Per Instruction
system.cpu1.cpi_total                        5.998506                       # CPI: Total CPI of All Threads
system.cpu1.decode.BlockedCycles            172897546                       # Number of cycles decode is blocked
system.cpu1.decode.BranchMispred               338954                       # Number of times decode detected a branch misprediction
system.cpu1.decode.BranchResolved             4343035                       # Number of times decode resolved a branch
system.cpu1.decode.DecodedInsts              39522099                       # Number of instructions handled by decode
system.cpu1.decode.IdleCycles                 5286771                       # Number of cycles decode is idle
system.cpu1.decode.RunCycles                 12383084                       # Number of cycles decode is running
system.cpu1.decode.SquashCycles                485331                       # Number of cycles decode is squashing
system.cpu1.decode.SquashedInsts               567181                       # Number of squashed instructions handled by decode
system.cpu1.decode.UnblockCycles              2303314                       # Number of cycles decode is unblocking
system.cpu1.dtb.accesses                            0                       # DTB accesses
system.cpu1.dtb.hits                                0                       # DTB hits
system.cpu1.dtb.misses                              0                       # DTB misses
system.cpu1.dtb.read_accesses                       0                       # DTB read accesses
system.cpu1.dtb.read_hits                           0                       # DTB read hits
system.cpu1.dtb.read_misses                         0                       # DTB read misses
system.cpu1.dtb.write_accesses                      0                       # DTB write accesses
system.cpu1.dtb.write_hits                          0                       # DTB write hits
system.cpu1.dtb.write_misses                        0                       # DTB write misses
system.cpu1.fetch.Branches                    8728204                       # Number of branches that fetch encountered
system.cpu1.fetch.CacheLines                  5114637                       # Number of cache lines fetched
system.cpu1.fetch.Cycles                    186765168                       # Number of cycles fetch has run and was not squashing or blocked
system.cpu1.fetch.IcacheSquashes                76181                       # Number of outstanding Icache misses that were squashed
system.cpu1.fetch.Insts                      40428617                       # Number of instructions fetch has processed
system.cpu1.fetch.MiscStallCycles                   1                       # Number of cycles fetch has spent waiting on interrupts, or bad addresses, or out of MSHRs
system.cpu1.fetch.SquashCycles                1641458                       # Number of cycles fetch has spent squashing
system.cpu1.fetch.branchRate                 0.045098                       # Number of branch fetches per cycle
system.cpu1.fetch.icacheStallCycles           5770148                       # Number of cycles fetch is stalled on an Icache miss
system.cpu1.fetch.predictedBranches           4746102                       # Number of branches that fetch has predicted taken
system.cpu1.fetch.rate                       0.208892                       # Number of inst fetches per cycle
system.cpu1.fetch.rateDist::samples         193356046                       # Number of instructions fetched each cycle (Total)
system.cpu1.fetch.rateDist::mean             0.214357                       # Number of instructions fetched each cycle (Total)
system.cpu1.fetch.rateDist::stdev            0.649203                       # Number of instructions fetched each cycle (Total)
system.cpu1.fetch.rateDist::underflows              0      0.00%      0.00% # Number of instructions fetched each cycle (Total)
system.cpu1.fetch.rateDist::0               168384982     87.09%     87.09% # Number of instructions fetched each cycle (Total)
system.cpu1.fetch.rateDist::1                14639064      7.57%     94.66% # Number of instructions fetched each cycle (Total)
system.cpu1.fetch.rateDist::2                 5823881      3.01%     97.67% # Number of instructions fetched each cycle (Total)
system.cpu1.fetch.rateDist::3                 3076690      1.59%     99.26% # Number of instructions fetched each cycle (Total)
system.cpu1.fetch.rateDist::4                 1230523      0.64%     99.90% # Number of instructions fetched each cycle (Total)
system.cpu1.fetch.rateDist::5                  197830      0.10%    100.00% # Number of instructions fetched each cycle (Total)
system.cpu1.fetch.rateDist::6                    2805      0.00%    100.00% # Number of instructions fetched each cycle (Total)
system.cpu1.fetch.rateDist::7                       9      0.00%    100.00% # Number of instructions fetched each cycle (Total)
system.cpu1.fetch.rateDist::8                     262      0.00%    100.00% # Number of instructions fetched each cycle (Total)
system.cpu1.fetch.rateDist::overflows               0      0.00%    100.00% # Number of instructions fetched each cycle (Total)
system.cpu1.fetch.rateDist::min_value               0                       # Number of instructions fetched each cycle (Total)
system.cpu1.fetch.rateDist::max_value               8                       # Number of instructions fetched each cycle (Total)
system.cpu1.fetch.rateDist::total           193356046                       # Number of instructions fetched each cycle (Total)
system.cpu1.fp_regfile_reads                       12                       # number of floating regfile reads
system.cpu1.idleCycles                         182094                       # Total number of cycles that the CPU has spent unscheduled due to idling
system.cpu1.iew.branchMispredicts              513634                       # Number of branch mispredicts detected at execute
system.cpu1.iew.exec_branches                 7641989                       # Number of branches executed
system.cpu1.iew.exec_nop                            0                       # number of nop insts executed
system.cpu1.iew.exec_rate                    0.185001                       # Inst execution rate
system.cpu1.iew.exec_refs                    12906296                       # number of memory reference insts executed
system.cpu1.iew.exec_stores                   2941794                       # Number of stores executed
system.cpu1.iew.exec_swp                            0                       # number of swp insts executed
system.cpu1.iew.iewBlockCycles              149969639                       # Number of cycles IEW is blocking
system.cpu1.iew.iewDispLoadInsts             10047639                       # Number of dispatched load instructions
system.cpu1.iew.iewDispNonSpecInsts           1018685                       # Number of dispatched non-speculative instructions
system.cpu1.iew.iewDispSquashedInsts           704568                       # Number of squashed instructions skipped by dispatch
system.cpu1.iew.iewDispStoreInsts             2968995                       # Number of dispatched store instructions
system.cpu1.iew.iewDispatchedInsts           36905332                       # Number of instructions dispatched to IQ
system.cpu1.iew.iewExecLoadInsts              9964502                       # Number of load instructions executed
system.cpu1.iew.iewExecSquashedInsts           373511                       # Number of squashed instructions skipped in execute
system.cpu1.iew.iewExecutedInsts             35804797                       # Number of executed instructions
system.cpu1.iew.iewIQFullEvents                900715                       # Number of times the IQ has become full, causing a stall
system.cpu1.iew.iewIdleCycles                       0                       # Number of cycles IEW is idle
system.cpu1.iew.iewLSQFullEvents              1600465                       # Number of times the LSQ has become full, causing a stall
system.cpu1.iew.iewSquashCycles                485331                       # Number of cycles IEW is squashing
system.cpu1.iew.iewUnblockCycles              3608238                       # Number of cycles IEW is unblocking
system.cpu1.iew.lsq.thread0.blockedLoads            0                       # Number of blocked loads due to partial load-store forwarding
system.cpu1.iew.lsq.thread0.cacheBlocked        20749                       # Number of times an access to memory failed due to the cache being blocked
system.cpu1.iew.lsq.thread0.forwLoads          134435                       # Number of loads that had data forwarded from stores
system.cpu1.iew.lsq.thread0.ignoredResponses         3972                       # Number of memory responses ignored because the instruction is squashed
system.cpu1.iew.lsq.thread0.invAddrLoads            0                       # Number of loads ignored due to an invalid address
system.cpu1.iew.lsq.thread0.invAddrSwpfs            0                       # Number of software prefetches ignored due to an invalid address
system.cpu1.iew.lsq.thread0.memOrderViolation          158                       # Number of memory ordering violations
system.cpu1.iew.lsq.thread0.rescheduledLoads          337                       # Number of loads that were rescheduled
system.cpu1.iew.lsq.thread0.squashedLoads       798894                       # Number of loads squashed
system.cpu1.iew.lsq.thread0.squashedStores        54758                       # Number of stores squashed
system.cpu1.iew.memOrderViolationEvents           158                       # Number of memory order violations
system.cpu1.iew.predictedNotTakenIncorrect        91449                       # Number of branches that were predicted not taken incorrectly
system.cpu1.iew.predictedTakenIncorrect        422185                       # Number of branches that were predicted taken incorrectly
system.cpu1.iew.wb_consumers                 20836599                       # num instructions consuming a value
system.cpu1.iew.wb_count                     35550297                       # cumulative count of insts written-back
system.cpu1.iew.wb_fanout                    0.868174                       # average fanout of values written-back
system.cpu1.iew.wb_producers                 18089787                       # num instructions producing a value
system.cpu1.iew.wb_rate                      0.183686                       # insts written-back per cycle
system.cpu1.iew.wb_sent                      35557065                       # cumulative count of insts sent to commit
system.cpu1.int_regfile_reads                44106077                       # number of integer regfile reads
system.cpu1.int_regfile_writes               24144440                       # number of integer regfile writes
system.cpu1.ipc                              0.166708                       # IPC: Instructions Per Cycle
system.cpu1.ipc_total                        0.166708                       # IPC: Total IPC of All Threads
system.cpu1.iq.FU_type_0::No_OpClass          2036062      5.63%      5.63% # Type of FU issued
system.cpu1.iq.FU_type_0::IntAlu             21138659     58.43%     64.06% # Type of FU issued
system.cpu1.iq.FU_type_0::IntMult                  45      0.00%     64.06% # Type of FU issued
system.cpu1.iq.FU_type_0::IntDiv                   84      0.00%     64.06% # Type of FU issued
system.cpu1.iq.FU_type_0::FloatAdd                  0      0.00%     64.06% # Type of FU issued
system.cpu1.iq.FU_type_0::FloatCmp                  0      0.00%     64.06% # Type of FU issued
system.cpu1.iq.FU_type_0::FloatCvt                  0      0.00%     64.06% # Type of FU issued
system.cpu1.iq.FU_type_0::FloatMult                 0      0.00%     64.06% # Type of FU issued
system.cpu1.iq.FU_type_0::FloatMultAcc              0      0.00%     64.06% # Type of FU issued
system.cpu1.iq.FU_type_0::FloatDiv                  0      0.00%     64.06% # Type of FU issued
system.cpu1.iq.FU_type_0::FloatMisc                 0      0.00%     64.06% # Type of FU issued
system.cpu1.iq.FU_type_0::FloatSqrt                 0      0.00%     64.06% # Type of FU issued
system.cpu1.iq.FU_type_0::SimdAdd                   0      0.00%     64.06% # Type of FU issued
system.cpu1.iq.FU_type_0::SimdAddAcc                0      0.00%     64.06% # Type of FU issued
system.cpu1.iq.FU_type_0::SimdAlu                   0      0.00%     64.06% # Type of FU issued
system.cpu1.iq.FU_type_0::SimdCmp                   0      0.00%     64.06% # Type of FU issued
system.cpu1.iq.FU_type_0::SimdCvt                   0      0.00%     64.06% # Type of FU issued
system.cpu1.iq.FU_type_0::SimdMisc                  0      0.00%     64.06% # Type of FU issued
system.cpu1.iq.FU_type_0::SimdMult                  0      0.00%     64.06% # Type of FU issued
system.cpu1.iq.FU_type_0::SimdMultAcc               0      0.00%     64.06% # Type of FU issued
system.cpu1.iq.FU_type_0::SimdShift                 0      0.00%     64.06% # Type of FU issued
system.cpu1.iq.FU_type_0::SimdShiftAcc              0      0.00%     64.06% # Type of FU issued
system.cpu1.iq.FU_type_0::SimdDiv                   0      0.00%     64.06% # Type of FU issued
system.cpu1.iq.FU_type_0::SimdSqrt                  0      0.00%     64.06% # Type of FU issued
system.cpu1.iq.FU_type_0::SimdFloatAdd              0      0.00%     64.06% # Type of FU issued
system.cpu1.iq.FU_type_0::SimdFloatAlu              0      0.00%     64.06% # Type of FU issued
system.cpu1.iq.FU_type_0::SimdFloatCmp              0      0.00%     64.06% # Type of FU issued
system.cpu1.iq.FU_type_0::SimdFloatCvt              0      0.00%     64.06% # Type of FU issued
system.cpu1.iq.FU_type_0::SimdFloatDiv              0      0.00%     64.06% # Type of FU issued
system.cpu1.iq.FU_type_0::SimdFloatMisc             0      0.00%     64.06% # Type of FU issued
system.cpu1.iq.FU_type_0::SimdFloatMult             0      0.00%     64.06% # Type of FU issued
system.cpu1.iq.FU_type_0::SimdFloatMultAcc            0      0.00%     64.06% # Type of FU issued
system.cpu1.iq.FU_type_0::SimdFloatSqrt             0      0.00%     64.06% # Type of FU issued
system.cpu1.iq.FU_type_0::SimdReduceAdd             0      0.00%     64.06% # Type of FU issued
system.cpu1.iq.FU_type_0::SimdReduceAlu             0      0.00%     64.06% # Type of FU issued
system.cpu1.iq.FU_type_0::SimdReduceCmp             0      0.00%     64.06% # Type of FU issued
system.cpu1.iq.FU_type_0::SimdFloatReduceAdd            0      0.00%     64.06% # Type of FU issued
system.cpu1.iq.FU_type_0::SimdFloatReduceCmp            0      0.00%     64.06% # Type of FU issued
system.cpu1.iq.FU_type_0::SimdAes                   0      0.00%     64.06% # Type of FU issued
system.cpu1.iq.FU_type_0::SimdAesMix                0      0.00%     64.06% # Type of FU issued
system.cpu1.iq.FU_type_0::SimdSha1Hash              0      0.00%     64.06% # Type of FU issued
system.cpu1.iq.FU_type_0::SimdSha1Hash2             0      0.00%     64.06% # Type of FU issued
system.cpu1.iq.FU_type_0::SimdSha256Hash            0      0.00%     64.06% # Type of FU issued
system.cpu1.iq.FU_type_0::SimdSha256Hash2            0      0.00%     64.06% # Type of FU issued
system.cpu1.iq.FU_type_0::SimdShaSigma2             0      0.00%     64.06% # Type of FU issued
system.cpu1.iq.FU_type_0::SimdShaSigma3             0      0.00%     64.06% # Type of FU issued
system.cpu1.iq.FU_type_0::SimdPredAlu               0      0.00%     64.06% # Type of FU issued
system.cpu1.iq.FU_type_0::MemRead            11074027     30.61%     94.67% # Type of FU issued
system.cpu1.iq.FU_type_0::MemWrite            1929419      5.33%    100.00% # Type of FU issued
system.cpu1.iq.FU_type_0::FloatMemRead              0      0.00%    100.00% # Type of FU issued
system.cpu1.iq.FU_type_0::FloatMemWrite            12      0.00%    100.00% # Type of FU issued
system.cpu1.iq.FU_type_0::IprAccess                 0      0.00%    100.00% # Type of FU issued
system.cpu1.iq.FU_type_0::InstPrefetch              0      0.00%    100.00% # Type of FU issued
system.cpu1.iq.FU_type_0::total              36178308                       # Type of FU issued
system.cpu1.iq.fp_alu_accesses                     14                       # Number of floating point alu accesses
system.cpu1.iq.fp_inst_queue_reads                 26                       # Number of floating instruction queue reads
system.cpu1.iq.fp_inst_queue_wakeup_accesses           12                       # Number of floating instruction queue wakeup accesses
system.cpu1.iq.fp_inst_queue_writes                12                       # Number of floating instruction queue writes
system.cpu1.iq.fu_busy_cnt                    1131653                       # FU busy when requested
system.cpu1.iq.fu_busy_rate                  0.031280                       # FU busy rate (busy events/executed inst)
system.cpu1.iq.fu_full::No_OpClass                  0      0.00%      0.00% # attempts to use FU when none available
system.cpu1.iq.fu_full::IntAlu                 210924     18.64%     18.64% # attempts to use FU when none available
system.cpu1.iq.fu_full::IntMult                     0      0.00%     18.64% # attempts to use FU when none available
system.cpu1.iq.fu_full::IntDiv                      0      0.00%     18.64% # attempts to use FU when none available
system.cpu1.iq.fu_full::FloatAdd                    0      0.00%     18.64% # attempts to use FU when none available
system.cpu1.iq.fu_full::FloatCmp                    0      0.00%     18.64% # attempts to use FU when none available
system.cpu1.iq.fu_full::FloatCvt                    0      0.00%     18.64% # attempts to use FU when none available
system.cpu1.iq.fu_full::FloatMult                   0      0.00%     18.64% # attempts to use FU when none available
system.cpu1.iq.fu_full::FloatMultAcc                0      0.00%     18.64% # attempts to use FU when none available
system.cpu1.iq.fu_full::FloatDiv                    0      0.00%     18.64% # attempts to use FU when none available
system.cpu1.iq.fu_full::FloatMisc                   0      0.00%     18.64% # attempts to use FU when none available
system.cpu1.iq.fu_full::FloatSqrt                   0      0.00%     18.64% # attempts to use FU when none available
system.cpu1.iq.fu_full::SimdAdd                     0      0.00%     18.64% # attempts to use FU when none available
system.cpu1.iq.fu_full::SimdAddAcc                  0      0.00%     18.64% # attempts to use FU when none available
system.cpu1.iq.fu_full::SimdAlu                     0      0.00%     18.64% # attempts to use FU when none available
system.cpu1.iq.fu_full::SimdCmp                     0      0.00%     18.64% # attempts to use FU when none available
system.cpu1.iq.fu_full::SimdCvt                     0      0.00%     18.64% # attempts to use FU when none available
system.cpu1.iq.fu_full::SimdMisc                    0      0.00%     18.64% # attempts to use FU when none available
system.cpu1.iq.fu_full::SimdMult                    0      0.00%     18.64% # attempts to use FU when none available
system.cpu1.iq.fu_full::SimdMultAcc                 0      0.00%     18.64% # attempts to use FU when none available
system.cpu1.iq.fu_full::SimdShift                   0      0.00%     18.64% # attempts to use FU when none available
system.cpu1.iq.fu_full::SimdShiftAcc                0      0.00%     18.64% # attempts to use FU when none available
system.cpu1.iq.fu_full::SimdDiv                     0      0.00%     18.64% # attempts to use FU when none available
system.cpu1.iq.fu_full::SimdSqrt                    0      0.00%     18.64% # attempts to use FU when none available
system.cpu1.iq.fu_full::SimdFloatAdd                0      0.00%     18.64% # attempts to use FU when none available
system.cpu1.iq.fu_full::SimdFloatAlu                0      0.00%     18.64% # attempts to use FU when none available
system.cpu1.iq.fu_full::SimdFloatCmp                0      0.00%     18.64% # attempts to use FU when none available
system.cpu1.iq.fu_full::SimdFloatCvt                0      0.00%     18.64% # attempts to use FU when none available
system.cpu1.iq.fu_full::SimdFloatDiv                0      0.00%     18.64% # attempts to use FU when none available
system.cpu1.iq.fu_full::SimdFloatMisc               0      0.00%     18.64% # attempts to use FU when none available
system.cpu1.iq.fu_full::SimdFloatMult               0      0.00%     18.64% # attempts to use FU when none available
system.cpu1.iq.fu_full::SimdFloatMultAcc            0      0.00%     18.64% # attempts to use FU when none available
system.cpu1.iq.fu_full::SimdFloatSqrt               0      0.00%     18.64% # attempts to use FU when none available
system.cpu1.iq.fu_full::SimdReduceAdd               0      0.00%     18.64% # attempts to use FU when none available
system.cpu1.iq.fu_full::SimdReduceAlu               0      0.00%     18.64% # attempts to use FU when none available
system.cpu1.iq.fu_full::SimdReduceCmp               0      0.00%     18.64% # attempts to use FU when none available
system.cpu1.iq.fu_full::SimdFloatReduceAdd            0      0.00%     18.64% # attempts to use FU when none available
system.cpu1.iq.fu_full::SimdFloatReduceCmp            0      0.00%     18.64% # attempts to use FU when none available
system.cpu1.iq.fu_full::SimdAes                     0      0.00%     18.64% # attempts to use FU when none available
system.cpu1.iq.fu_full::SimdAesMix                  0      0.00%     18.64% # attempts to use FU when none available
system.cpu1.iq.fu_full::SimdSha1Hash                0      0.00%     18.64% # attempts to use FU when none available
system.cpu1.iq.fu_full::SimdSha1Hash2               0      0.00%     18.64% # attempts to use FU when none available
system.cpu1.iq.fu_full::SimdSha256Hash              0      0.00%     18.64% # attempts to use FU when none available
system.cpu1.iq.fu_full::SimdSha256Hash2             0      0.00%     18.64% # attempts to use FU when none available
system.cpu1.iq.fu_full::SimdShaSigma2               0      0.00%     18.64% # attempts to use FU when none available
system.cpu1.iq.fu_full::SimdShaSigma3               0      0.00%     18.64% # attempts to use FU when none available
system.cpu1.iq.fu_full::SimdPredAlu                 0      0.00%     18.64% # attempts to use FU when none available
system.cpu1.iq.fu_full::MemRead                814189     71.95%     90.59% # attempts to use FU when none available
system.cpu1.iq.fu_full::MemWrite               106538      9.41%    100.00% # attempts to use FU when none available
[...]
system.cpu1.dcache.WriteReq_misses::.cpu1.data      2158730                       # number of WriteReq misses
system.cpu1.dcache.WriteReq_misses::total      2158730                       # number of WriteReq misses
system.cpu1.dcache.WriteReq_miss_latency::.cpu1.data 146465796959                       # number of WriteReq miss cycles
system.cpu1.dcache.WriteReq_miss_latency::total 146465796959                       # number of WriteReq miss cycles
system.cpu1.dcache.WriteReq_accesses::.cpu1.data      3703961                       # number of WriteReq accesses(hits+misses)
system.cpu1.dcache.WriteReq_accesses::total      3703961                       # number of WriteReq accesses(hits+misses)
system.cpu1.dcache.WriteReq_miss_rate::.cpu1.data     0.582817                       # miss rate for WriteReq accesses
system.cpu1.dcache.WriteReq_miss_rate::total     0.582817                       # miss rate for WriteReq accesses
system.cpu1.dcache.WriteReq_avg_miss_latency::.cpu1.data 67848.131521                       # average WriteReq miss latency
system.cpu1.dcache.WriteReq_avg_miss_latency::total 67848.131521                       # average WriteReq miss latency
system.cpu1.dcache.WriteReq_mshr_hits::.cpu1.data      1640599                       # number of WriteReq MSHR hits
system.cpu1.dcache.WriteReq_mshr_hits::total      1640599                       # number of WriteReq MSHR hits
system.cpu1.dcache.WriteReq_mshr_misses::.cpu1.data       518131                       # number of WriteReq MSHR misses
system.cpu1.dcache.WriteReq_mshr_misses::total       518131                       # number of WriteReq MSHR misses
system.cpu1.dcache.WriteReq_mshr_miss_latency::.cpu1.data  42855642113                       # number of WriteReq MSHR miss cycles
system.cpu1.dcache.WriteReq_mshr_miss_latency::total  42855642113                       # number of WriteReq MSHR miss cycles
system.cpu1.dcache.WriteReq_mshr_miss_rate::.cpu1.data     0.139886                       # mshr miss rate for WriteReq accesses
system.cpu1.dcache.WriteReq_mshr_miss_rate::total     0.139886                       # mshr miss rate for WriteReq accesses
system.cpu1.dcache.WriteReq_avg_mshr_miss_latency::.cpu1.data 82711.982323                       # average WriteReq mshr miss latency
system.cpu1.dcache.WriteReq_avg_mshr_miss_latency::total 82711.982323                       # average WriteReq mshr miss latency
system.cpu1.dcache.LoadLockedReq_hits::.cpu1.data      1080113                       # number of LoadLockedReq hits
system.cpu1.dcache.LoadLockedReq_hits::total      1080113                       # number of LoadLockedReq hits
system.cpu1.dcache.LoadLockedReq_misses::.cpu1.data         2325                       # number of LoadLockedReq misses
system.cpu1.dcache.LoadLockedReq_misses::total         2325                       # number of LoadLockedReq misses
system.cpu1.dcache.LoadLockedReq_miss_latency::.cpu1.data     66170000                       # number of LoadLockedReq miss cycles
system.cpu1.dcache.LoadLockedReq_miss_latency::total     66170000                       # number of LoadLockedReq miss cycles
system.cpu1.dcache.LoadLockedReq_accesses::.cpu1.data      1082438                       # number of LoadLockedReq accesses(hits+misses)
system.cpu1.dcache.LoadLockedReq_accesses::total      1082438                       # number of LoadLockedReq accesses(hits+misses)
system.cpu1.dcache.LoadLockedReq_miss_rate::.cpu1.data     0.002148                       # miss rate for LoadLockedReq accesses
system.cpu1.dcache.LoadLockedReq_miss_rate::total     0.002148                       # miss rate for LoadLockedReq accesses
system.cpu1.dcache.LoadLockedReq_avg_miss_latency::.cpu1.data 28460.215054                       # average LoadLockedReq miss latency
system.cpu1.dcache.LoadLockedReq_avg_miss_latency::total 28460.215054                       # average LoadLockedReq miss latency
system.cpu1.dcache.LoadLockedReq_mshr_hits::.cpu1.data          269                       # number of LoadLockedReq MSHR hits
system.cpu1.dcache.LoadLockedReq_mshr_hits::total          269                       # number of LoadLockedReq MSHR hits
system.cpu1.dcache.LoadLockedReq_mshr_misses::.cpu1.data         2056                       # number of LoadLockedReq MSHR misses
system.cpu1.dcache.LoadLockedReq_mshr_misses::total         2056                       # number of LoadLockedReq MSHR misses
system.cpu1.dcache.LoadLockedReq_mshr_miss_latency::.cpu1.data     55394000                       # number of LoadLockedReq MSHR miss cycles
system.cpu1.dcache.LoadLockedReq_mshr_miss_latency::total     55394000                       # number of LoadLockedReq MSHR miss cycles
system.cpu1.dcache.LoadLockedReq_mshr_miss_rate::.cpu1.data     0.001899                       # mshr miss rate for LoadLockedReq accesses
system.cpu1.dcache.LoadLockedReq_mshr_miss_rate::total     0.001899                       # mshr miss rate for LoadLockedReq accesses
system.cpu1.dcache.LoadLockedReq_avg_mshr_miss_latency::.cpu1.data 26942.607004                       # average LoadLockedReq mshr miss latency
system.cpu1.dcache.LoadLockedReq_avg_mshr_miss_latency::total 26942.607004                       # average LoadLockedReq mshr miss latency
system.cpu1.dcache.StoreCondReq_hits::.cpu1.data      1075450                       # number of StoreCondReq hits
system.cpu1.dcache.StoreCondReq_hits::total      1075450                       # number of StoreCondReq hits
system.cpu1.dcache.StoreCondReq_misses::.cpu1.data         5172                       # number of StoreCondReq misses
system.cpu1.dcache.StoreCondReq_misses::total         5172                       # number of StoreCondReq misses
system.cpu1.dcache.StoreCondReq_miss_latency::.cpu1.data     51503000                       # number of StoreCondReq miss cycles
system.cpu1.dcache.StoreCondReq_miss_latency::total     51503000                       # number of StoreCondReq miss cycles
system.cpu1.dcache.StoreCondReq_accesses::.cpu1.data      1080622                       # number of StoreCondReq accesses(hits+misses)
system.cpu1.dcache.StoreCondReq_accesses::total      1080622                       # number of StoreCondReq accesses(hits+misses)
system.cpu1.dcache.StoreCondReq_miss_rate::.cpu1.data     0.004786                       # miss rate for StoreCondReq accesses
system.cpu1.dcache.StoreCondReq_miss_rate::total     0.004786                       # miss rate for StoreCondReq accesses
system.cpu1.dcache.StoreCondReq_avg_miss_latency::.cpu1.data  9958.043310                       # average StoreCondReq miss latency
system.cpu1.dcache.StoreCondReq_avg_miss_latency::total  9958.043310                       # average StoreCondReq miss latency
system.cpu1.dcache.StoreCondReq_mshr_misses::.cpu1.data         5149                       # number of StoreCondReq MSHR misses
system.cpu1.dcache.StoreCondReq_mshr_misses::total         5149                       # number of StoreCondReq MSHR misses
system.cpu1.dcache.StoreCondReq_mshr_miss_latency::.cpu1.data     46427000                       # number of StoreCondReq MSHR miss cycles
system.cpu1.dcache.StoreCondReq_mshr_miss_latency::total     46427000                       # number of StoreCondReq MSHR miss cycles
system.cpu1.dcache.StoreCondReq_mshr_miss_rate::.cpu1.data     0.004765                       # mshr miss rate for StoreCondReq accesses
system.cpu1.dcache.StoreCondReq_mshr_miss_rate::total     0.004765                       # mshr miss rate for StoreCondReq accesses
system.cpu1.dcache.StoreCondReq_avg_mshr_miss_latency::.cpu1.data  9016.702272                       # average StoreCondReq mshr miss latency
system.cpu1.dcache.StoreCondReq_avg_mshr_miss_latency::total  9016.702272                       # average StoreCondReq mshr miss latency
system.cpu1.dcache.StoreCondFailReq_miss_latency::.cpu1.data      1329500                       # number of StoreCondFailReq miss cycles
system.cpu1.dcache.StoreCondFailReq_miss_latency::total      1329500                       # number of StoreCondFailReq miss cycles
system.cpu1.dcache.StoreCondFailReq_avg_miss_latency::.cpu1.data          inf                       # average StoreCondFailReq miss latency
system.cpu1.dcache.StoreCondFailReq_avg_miss_latency::total          inf                       # average StoreCondFailReq miss latency
system.cpu1.dcache.StoreCondFailReq_mshr_miss_latency::.cpu1.data      1256500                       # number of StoreCondFailReq MSHR miss cycles
system.cpu1.dcache.StoreCondFailReq_mshr_miss_latency::total      1256500                       # number of StoreCondFailReq MSHR miss cycles
system.cpu1.dcache.StoreCondFailReq_avg_mshr_miss_latency::.cpu1.data          inf                       # average StoreCondFailReq mshr miss latency
system.cpu1.dcache.StoreCondFailReq_avg_mshr_miss_latency::total          inf                       # average StoreCondFailReq mshr miss latency
system.cpu1.dcache.SwapReq_hits::.cpu1.data       178742                       # number of SwapReq hits
system.cpu1.dcache.SwapReq_hits::total         178742                       # number of SwapReq hits
system.cpu1.dcache.SwapReq_misses::.cpu1.data       570217                       # number of SwapReq misses
system.cpu1.dcache.SwapReq_misses::total       570217                       # number of SwapReq misses
system.cpu1.dcache.SwapReq_miss_latency::.cpu1.data  49404822915                       # number of SwapReq miss cycles
system.cpu1.dcache.SwapReq_miss_latency::total  49404822915                       # number of SwapReq miss cycles
system.cpu1.dcache.SwapReq_accesses::.cpu1.data       748959                       # number of SwapReq accesses(hits+misses)
system.cpu1.dcache.SwapReq_accesses::total       748959                       # number of SwapReq accesses(hits+misses)
system.cpu1.dcache.SwapReq_miss_rate::.cpu1.data     0.761346                       # miss rate for SwapReq accesses
system.cpu1.dcache.SwapReq_miss_rate::total     0.761346                       # miss rate for SwapReq accesses
system.cpu1.dcache.SwapReq_avg_miss_latency::.cpu1.data 86642.143105                       # average SwapReq miss latency
system.cpu1.dcache.SwapReq_avg_miss_latency::total 86642.143105                       # average SwapReq miss latency
system.cpu1.dcache.SwapReq_mshr_hits::.cpu1.data            7                       # number of SwapReq MSHR hits
system.cpu1.dcache.SwapReq_mshr_hits::total            7                       # number of SwapReq MSHR hits
system.cpu1.dcache.SwapReq_mshr_misses::.cpu1.data       570210                       # number of SwapReq MSHR misses
system.cpu1.dcache.SwapReq_mshr_misses::total       570210                       # number of SwapReq MSHR misses
system.cpu1.dcache.SwapReq_mshr_miss_latency::.cpu1.data  48834605915                       # number of SwapReq MSHR miss cycles
system.cpu1.dcache.SwapReq_mshr_miss_latency::total  48834605915                       # number of SwapReq MSHR miss cycles
system.cpu1.dcache.SwapReq_mshr_miss_rate::.cpu1.data     0.761337                       # mshr miss rate for SwapReq accesses
system.cpu1.dcache.SwapReq_mshr_miss_rate::total     0.761337                       # mshr miss rate for SwapReq accesses
system.cpu1.dcache.SwapReq_avg_mshr_miss_latency::.cpu1.data 85643.194463                       # average SwapReq mshr miss latency
system.cpu1.dcache.SwapReq_avg_mshr_miss_latency::total 85643.194463                       # average SwapReq mshr miss latency
system.cpu1.dcache.tags.pwrStateResidencyTicks::UNDEFINED 341744337000                       # Cumulative time (in ticks) in various power states
system.cpu1.dcache.tags.tagsinuse           31.876999                       # Cycle average of tags in use
system.cpu1.dcache.tags.total_refs           43918645                       # Total number of references to valid blocks.
system.cpu1.dcache.tags.sampled_refs          7436281                       # Sample count of references to valid blocks.
system.cpu1.dcache.tags.avg_refs             5.905996                       # Average number of references to valid blocks.
system.cpu1.dcache.tags.warmup_cycle                0                       # Cycle when the warmup percentage was hit.
system.cpu1.dcache.tags.occ_blocks::.cpu1.data    31.876999                       # Average occupied blocks per requestor
system.cpu1.dcache.tags.occ_percent::.cpu1.data     0.996156                       # Average percentage of cache occupancy
system.cpu1.dcache.tags.occ_percent::total     0.996156                       # Average percentage of cache occupancy
system.cpu1.dcache.tags.occ_task_id_blocks::1024           27                       # Occupied blocks per task id
system.cpu1.dcache.tags.age_task_id_blocks_1024::1           27                       # Occupied blocks per task id
system.cpu1.dcache.tags.occ_task_id_percent::1024     0.843750                       # Percentage of cache occupancy per task id
system.cpu1.dcache.tags.tag_accesses        108930812                       # Number of tag accesses
system.cpu1.dcache.tags.data_accesses       108930812                       # Number of data accesses
system.cpu_clk_domain.clock                       500                       # Clock period in ticks
system.tol2bus.pwrStateResidencyTicks::UNDEFINED 341744337000                       # Cumulative time (in ticks) in various power states
system.tol2bus.trans_dist::ReadResp          12807619                       # Transaction distribution
system.tol2bus.trans_dist::WritebackDirty      6487145                       # Transaction distribution
system.tol2bus.trans_dist::WritebackClean     11473193                       # Transaction distribution
system.tol2bus.trans_dist::CleanEvict        22478075                       # Transaction distribution
system.tol2bus.trans_dist::HardPFReq          6407844                       # Transaction distribution
system.tol2bus.trans_dist::HardPFResp               5                       # Transaction distribution
system.tol2bus.trans_dist::UpgradeReq           11390                       # Transaction distribution
system.tol2bus.trans_dist::SCUpgradeReq         10148                       # Transaction distribution
system.tol2bus.trans_dist::UpgradeResp          21538                       # Transaction distribution
system.tol2bus.trans_dist::SCUpgradeFailReq          142                       # Transaction distribution
system.tol2bus.trans_dist::UpgradeFailResp          142                       # Transaction distribution
system.tol2bus.trans_dist::ReadExReq          2165667                       # Transaction distribution
system.tol2bus.trans_dist::ReadExResp         2165669                       # Transaction distribution
system.tol2bus.trans_dist::ReadCleanReq        149796                       # Transaction distribution
system.tol2bus.trans_dist::ReadSharedReq     12657825                       # Transaction distribution
system.tol2bus.trans_dist::InvalidateReq         1182                       # Transaction distribution
system.tol2bus.trans_dist::InvalidateResp         1182                       # Transaction distribution
system.tol2bus.pkt_count_system.cpu0.icache.mem_side::system.l2.cpu_side       287290                       # Packet count per connected master and slave (bytes)
system.tol2bus.pkt_count_system.cpu0.dcache.mem_side::system.l2.cpu_side     22136880                       # Packet count per connected master and slave (bytes)
system.tol2bus.pkt_count_system.cpu1.icache.mem_side::system.l2.cpu_side       162096                       # Packet count per connected master and slave (bytes)
system.tol2bus.pkt_count_system.cpu1.dcache.mem_side::system.l2.cpu_side     22280014                       # Packet count per connected master and slave (bytes)
system.tol2bus.pkt_count::total              44866280                       # Packet count per connected master and slave (bytes)
system.tol2bus.pkt_size_system.cpu0.icache.mem_side::system.l2.cpu_side     12257664                       # Cumulative packet size per connected master and slave (bytes)
system.tol2bus.pkt_size_system.cpu0.dcache.mem_side::system.l2.cpu_side    942947456                       # Cumulative packet size per connected master and slave (bytes)
system.tol2bus.pkt_size_system.cpu1.icache.mem_side::system.l2.cpu_side      6916096                       # Cumulative packet size per connected master and slave (bytes)
system.tol2bus.pkt_size_system.cpu1.dcache.mem_side::system.l2.cpu_side    949043648                       # Cumulative packet size per connected master and slave (bytes)
system.tol2bus.pkt_size::total             1911164864                       # Cumulative packet size per connected master and slave (bytes)
system.tol2bus.snoops                        31972287                       # Total snoops (count)
system.tol2bus.snoopTraffic                 196596928                       # Total snoop traffic (bytes)
system.tol2bus.snoop_fanout::samples         46916620                       # Request fanout histogram
system.tol2bus.snoop_fanout::mean            0.253248                       # Request fanout histogram
system.tol2bus.snoop_fanout::stdev           0.457021                       # Request fanout histogram
system.tol2bus.snoop_fanout::underflows             0      0.00%      0.00% # Request fanout histogram
system.tol2bus.snoop_fanout::0               35498493     75.66%     75.66% # Request fanout histogram
system.tol2bus.snoop_fanout::1               10954717     23.35%     99.01% # Request fanout histogram
system.tol2bus.snoop_fanout::2                 463410      0.99%    100.00% # Request fanout histogram
system.tol2bus.snoop_fanout::3                      0      0.00%    100.00% # Request fanout histogram
system.tol2bus.snoop_fanout::4                      0      0.00%    100.00% # Request fanout histogram
system.tol2bus.snoop_fanout::5                      0      0.00%    100.00% # Request fanout histogram
system.tol2bus.snoop_fanout::6                      0      0.00%    100.00% # Request fanout histogram
system.tol2bus.snoop_fanout::7                      0      0.00%    100.00% # Request fanout histogram
system.tol2bus.snoop_fanout::8                      0      0.00%    100.00% # Request fanout histogram
system.tol2bus.snoop_fanout::overflows              0      0.00%    100.00% # Request fanout histogram
system.tol2bus.snoop_fanout::min_value              0                       # Request fanout histogram
system.tol2bus.snoop_fanout::max_value              2                       # Request fanout histogram
system.tol2bus.snoop_fanout::total           46916620                       # Request fanout histogram
system.tol2bus.reqLayer0.occupancy        29910580265                       # Layer occupancy (ticks)
system.tol2bus.reqLayer0.utilization              8.8                       # Layer utilization (%)
system.tol2bus.respLayer1.occupancy       11100110635                       # Layer occupancy (ticks)
system.tol2bus.respLayer1.utilization             3.2                       # Layer utilization (%)
system.tol2bus.respLayer0.occupancy         144253279                       # Layer occupancy (ticks)
system.tol2bus.respLayer0.utilization             0.0                       # Layer utilization (%)
system.tol2bus.respLayer3.occupancy       11172236944                       # Layer occupancy (ticks)
system.tol2bus.respLayer3.utilization             3.3                       # Layer utilization (%)
system.tol2bus.respLayer2.occupancy          81662268                       # Layer occupancy (ticks)
system.tol2bus.respLayer2.utilization             0.0                       # Layer utilization (%)
system.tol2bus.snoopLayer0.occupancy             7506                       # Layer occupancy (ticks)
system.tol2bus.snoopLayer0.utilization            0.0                       # Layer utilization (%)

---------- End Simulation Statistics   ----------
