
---------- Begin Simulation Statistics ----------
final_tick                               1447874023500                       # Number of ticks from beginning of simulation (restored from checkpoints and never reset)
host_inst_rate                                 102291                       # Simulator instruction rate (inst/s)
host_mem_usage                                 739332                       # Number of bytes of host memory used
host_op_rate                                   102590                       # Simulator op (including micro ops) rate (op/s)
host_seconds                                 14086.19                       # Real time elapsed on the host
host_tick_rate                              102786774                       # Simulator tick rate (ticks/s)
sim_freq                                 1000000000000                       # Frequency of simulated ticks
sim_insts                                  1440893951                       # Number of instructions simulated
sim_ops                                    1445098972                       # Number of ops (including micro ops) simulated
sim_seconds                                  1.447874                       # Number of seconds simulated
sim_ticks                                1447874023500                       # Number of ticks simulated
system.cpu0.branchPred.BTBCorrect                   0                       # Number of correct BTB predictions (this stat may not work properly.
system.cpu0.branchPred.BTBHitPct            88.145386                       # BTB Hit Percentage
system.cpu0.branchPred.BTBHits              168128919                       # Number of BTB hits
system.cpu0.branchPred.BTBLookups           190740464                       # Number of BTB lookups
system.cpu0.branchPred.RASInCorrect                 0                       # Number of incorrect RAS predictions.
system.cpu0.branchPred.condIncorrect         15443492                       # Number of conditional branches incorrect
system.cpu0.branchPred.condPredicted        258722524                       # Number of conditional branches predicted
system.cpu0.branchPred.indirectHits          21333253                       # Number of indirect target hits.
system.cpu0.branchPred.indirectLookups       22047477                       # Number of indirect predictor lookups.
system.cpu0.branchPred.indirectMisses          714224                       # Number of indirect misses.
system.cpu0.branchPred.lookups              327936835                       # Number of BP lookups
system.cpu0.branchPred.usedRAS                      0                       # Number of times the RAS was used to get a target.
system.cpu0.branchPredindirectMispredicted      2148234                       # Number of mispredicted indirect branches.
system.cpu0.commit.amos                       1050461                       # Number of atomic instructions committed
system.cpu0.commit.branchMispredicts          9378446                       # The number of times a branch was mispredicted
system.cpu0.commit.branches                 313654994                       # Number of branches committed
system.cpu0.commit.bw_lim_events             31253324                       # number cycles where commit BW limit reached
system.cpu0.commit.commitNonSpecStalls        3160642                       # The number of times commit has been forced to stall to communicate backwards
system.cpu0.commit.commitSquashedInsts       40496828                       # The number of squashed insts skipped by commit
system.cpu0.commit.committedInsts          1250518080                       # Number of instructions committed
system.cpu0.commit.committedOps            1251571836                       # Number of ops (including micro ops) committed
system.cpu0.commit.committed_per_cycle::samples   2035195262                       # Number of insts commited each cycle
system.cpu0.commit.committed_per_cycle::mean     0.614964                       # Number of insts commited each cycle
system.cpu0.commit.committed_per_cycle::stdev     1.365933                       # Number of insts commited each cycle
system.cpu0.commit.committed_per_cycle::underflows            0      0.00%      0.00% # Number of insts commited each cycle
system.cpu0.commit.committed_per_cycle::0   1427904816     70.16%     70.16% # Number of insts commited each cycle
system.cpu0.commit.committed_per_cycle::1    363051114     17.84%     88.00% # Number of insts commited each cycle
system.cpu0.commit.committed_per_cycle::2     84295339      4.14%     92.14% # Number of insts commited each cycle
system.cpu0.commit.committed_per_cycle::3     82147160      4.04%     96.18% # Number of insts commited each cycle
system.cpu0.commit.committed_per_cycle::4     26506415      1.30%     97.48% # Number of insts commited each cycle
system.cpu0.commit.committed_per_cycle::5      8949210      0.44%     97.92% # Number of insts commited each cycle
system.cpu0.commit.committed_per_cycle::6      4924926      0.24%     98.16% # Number of insts commited each cycle
system.cpu0.commit.committed_per_cycle::7      6162958      0.30%     98.46% # Number of insts commited each cycle
system.cpu0.commit.committed_per_cycle::8     31253324      1.54%    100.00% # Number of insts commited each cycle
system.cpu0.commit.committed_per_cycle::overflows            0      0.00%    100.00% # Number of insts commited each cycle
system.cpu0.commit.committed_per_cycle::min_value            0                       # Number of insts commited each cycle
system.cpu0.commit.committed_per_cycle::max_value            8                       # Number of insts commited each cycle
system.cpu0.commit.committed_per_cycle::total   2035195262                       # Number of insts commited each cycle
system.cpu0.commit.fp_insts                        50                       # Number of committed floating point instructions.
system.cpu0.commit.function_calls            24112885                       # Number of function calls committed.
system.cpu0.commit.int_insts               1209818119                       # Number of committed integer instructions.
system.cpu0.commit.loads                    388697269                       # Number of loads committed
system.cpu0.commit.membars                    2104071                       # Number of memory barriers committed
system.cpu0.commit.op_class_0::No_OpClass      2104077      0.17%      0.17% # Class of committed instruction
system.cpu0.commit.op_class_0::IntAlu       699530627     55.89%     56.06% # Class of committed instruction
system.cpu0.commit.op_class_0::IntMult       11833128      0.95%     57.01% # Class of committed instruction
system.cpu0.commit.op_class_0::IntDiv         2099835      0.17%     57.17% # Class of committed instruction
system.cpu0.commit.op_class_0::FloatAdd             0      0.00%     57.17% # Class of committed instruction
system.cpu0.commit.op_class_0::FloatCmp             4      0.00%     57.17% # Class of committed instruction
system.cpu0.commit.op_class_0::FloatCvt            12      0.00%     57.17% # Class of committed instruction
system.cpu0.commit.op_class_0::FloatMult            0      0.00%     57.17% # Class of committed instruction
system.cpu0.commit.op_class_0::FloatMultAcc            0      0.00%     57.17% # Class of committed instruction
system.cpu0.commit.op_class_0::FloatDiv             2      0.00%     57.17% # Class of committed instruction
system.cpu0.commit.op_class_0::FloatMisc            4      0.00%     57.17% # Class of committed instruction
system.cpu0.commit.op_class_0::FloatSqrt            0      0.00%     57.17% # Class of committed instruction
system.cpu0.commit.op_class_0::SimdAdd              0      0.00%     57.17% # Class of committed instruction
system.cpu0.commit.op_class_0::SimdAddAcc            0      0.00%     57.17% # Class of committed instruction
system.cpu0.commit.op_class_0::SimdAlu              0      0.00%     57.17% # Class of committed instruction
system.cpu0.commit.op_class_0::SimdCmp              0      0.00%     57.17% # Class of committed instruction
system.cpu0.commit.op_class_0::SimdCvt              0      0.00%     57.17% # Class of committed instruction
system.cpu0.commit.op_class_0::SimdMisc             0      0.00%     57.17% # Class of committed instruction
system.cpu0.commit.op_class_0::SimdMult             0      0.00%     57.17% # Class of committed instruction
system.cpu0.commit.op_class_0::SimdMultAcc            0      0.00%     57.17% # Class of committed instruction
system.cpu0.commit.op_class_0::SimdShift            0      0.00%     57.17% # Class of committed instruction
system.cpu0.commit.op_class_0::SimdShiftAcc            0      0.00%     57.17% # Class of committed instruction
system.cpu0.commit.op_class_0::SimdDiv              0      0.00%     57.17% # Class of committed instruction
system.cpu0.commit.op_class_0::SimdSqrt             0      0.00%     57.17% # Class of committed instruction
system.cpu0.commit.op_class_0::SimdFloatAdd            0      0.00%     57.17% # Class of committed instruction
system.cpu0.commit.op_class_0::SimdFloatAlu            0      0.00%     57.17% # Class of committed instruction
system.cpu0.commit.op_class_0::SimdFloatCmp            0      0.00%     57.17% # Class of committed instruction
system.cpu0.commit.op_class_0::SimdFloatCvt            0      0.00%     57.17% # Class of committed instruction
system.cpu0.commit.op_class_0::SimdFloatDiv            0      0.00%     57.17% # Class of committed instruction
system.cpu0.commit.op_class_0::SimdFloatMisc            0      0.00%     57.17% # Class of committed instruction
system.cpu0.commit.op_class_0::SimdFloatMult            0      0.00%     57.17% # Class of committed instruction
system.cpu0.commit.op_class_0::SimdFloatMultAcc            0      0.00%     57.17% # Class of committed instruction
system.cpu0.commit.op_class_0::SimdFloatSqrt            0      0.00%     57.17% # Class of committed instruction
system.cpu0.commit.op_class_0::SimdReduceAdd            0      0.00%     57.17% # Class of committed instruction
system.cpu0.commit.op_class_0::SimdReduceAlu            0      0.00%     57.17% # Class of committed instruction
system.cpu0.commit.op_class_0::SimdReduceCmp            0      0.00%     57.17% # Class of committed instruction
system.cpu0.commit.op_class_0::SimdFloatReduceAdd            0      0.00%     57.17% # Class of committed instruction
system.cpu0.commit.op_class_0::SimdFloatReduceCmp            0      0.00%     57.17% # Class of committed instruction
system.cpu0.commit.op_class_0::SimdAes              0      0.00%     57.17% # Class of committed instruction
system.cpu0.commit.op_class_0::SimdAesMix            0      0.00%     57.17% # Class of committed instruction
system.cpu0.commit.op_class_0::SimdSha1Hash            0      0.00%     57.17% # Class of committed instruction
system.cpu0.commit.op_class_0::SimdSha1Hash2            0      0.00%     57.17% # Class of committed instruction
system.cpu0.commit.op_class_0::SimdSha256Hash            0      0.00%     57.17% # Class of committed instruction
system.cpu0.commit.op_class_0::SimdSha256Hash2            0      0.00%     57.17% # Class of committed instruction
system.cpu0.commit.op_class_0::SimdShaSigma2            0      0.00%     57.17% # Class of committed instruction
system.cpu0.commit.op_class_0::SimdShaSigma3            0      0.00%     57.17% # Class of committed instruction
system.cpu0.commit.op_class_0::SimdPredAlu            0      0.00%     57.17% # Class of committed instruction
system.cpu0.commit.op_class_0::MemRead      389747722     31.14%     88.31% # Class of committed instruction
system.cpu0.commit.op_class_0::MemWrite     146256397     11.69%    100.00% # Class of committed instruction
system.cpu0.commit.op_class_0::FloatMemRead            8      0.00%    100.00% # Class of committed instruction
system.cpu0.commit.op_class_0::FloatMemWrite           20      0.00%    100.00% # Class of committed instruction
system.cpu0.commit.op_class_0::IprAccess            0      0.00%    100.00% # Class of committed instruction
system.cpu0.commit.op_class_0::InstPrefetch            0      0.00%    100.00% # Class of committed instruction
system.cpu0.commit.op_class_0::total       1251571836                       # Class of committed instruction
system.cpu0.commit.refs                     536004147                       # Number of memory references committed
system.cpu0.commit.swp_count                        0                       # Number of s/w prefetches committed
system.cpu0.commit.vec_insts                        0                       # Number of committed Vector instructions.
system.cpu0.committedInsts                 1250518080                       # Number of Instructions Simulated
system.cpu0.committedOps                   1251571836                       # Number of Ops (including micro ops) Simulated
system.cpu0.cpi                              2.307346                       # CPI: Cycles Per Instruction
system.cpu0.cpi_total                        2.307346                       # CPI: Total CPI of All Threads
system.cpu0.decode.BlockedCycles            281816868                       # Number of cycles decode is blocked
system.cpu0.decode.BranchMispred              6087390                       # Number of times decode detected a branch misprediction
system.cpu0.decode.BranchResolved           166907384                       # Number of times decode resolved a branch
system.cpu0.decode.DecodedInsts            1308911761                       # Number of instructions handled by decode
system.cpu0.decode.IdleCycles               846239723                       # Number of cycles decode is idle
system.cpu0.decode.RunCycles                906788913                       # Number of cycles decode is running
system.cpu0.decode.SquashCycles               9384034                       # Number of cycles decode is squashing
system.cpu0.decode.SquashedInsts             13505672                       # Number of squashed instructions handled by decode
system.cpu0.decode.UnblockCycles              3668827                       # Number of cycles decode is unblocking
system.cpu0.dtb.accesses                            0                       # DTB accesses
system.cpu0.dtb.hits                                0                       # DTB hits
system.cpu0.dtb.misses                              0                       # DTB misses
system.cpu0.dtb.read_accesses                       0                       # DTB read accesses
system.cpu0.dtb.read_hits                           0                       # DTB read hits
system.cpu0.dtb.read_misses                         0                       # DTB read misses
system.cpu0.dtb.write_accesses                      0                       # DTB write accesses
system.cpu0.dtb.write_hits                          0                       # DTB write hits
system.cpu0.dtb.write_misses                        0                       # DTB write misses
system.cpu0.fetch.Branches                  327936835                       # Number of branches that fetch encountered
system.cpu0.fetch.CacheLines                232545523                       # Number of cache lines fetched
system.cpu0.fetch.Cycles                   1204349656                       # Number of cycles fetch has run and was not squashing or blocked
system.cpu0.fetch.IcacheSquashes              6690240                       # Number of outstanding Icache misses that were squashed
system.cpu0.fetch.IcacheWaitRetryStallCycles           98                       # Number of stall cycles due to full MSHR
system.cpu0.fetch.Insts                    1329739185                       # Number of instructions fetch has processed
system.cpu0.fetch.MiscStallCycles                  31                       # Number of cycles fetch has spent waiting on interrupts, or bad addresses, or out of MSHRs
system.cpu0.fetch.PendingTrapStallCycles          129                       # Number of stall cycles due to pending traps
system.cpu0.fetch.SquashCycles               30898202                       # Number of cycles fetch has spent squashing
system.cpu0.fetch.branchRate                 0.113655                       # Number of branch fetches per cycle
system.cpu0.fetch.icacheStallCycles         828099350                       # Number of cycles fetch is stalled on an Icache miss
system.cpu0.fetch.predictedBranches         189462172                       # Number of branches that fetch has predicted taken
system.cpu0.fetch.rate                       0.460854                       # Number of inst fetches per cycle
system.cpu0.fetch.rateDist::samples        2047898365                       # Number of instructions fetched each cycle (Total)
system.cpu0.fetch.rateDist::mean             0.649834                       # Number of instructions fetched each cycle (Total)
system.cpu0.fetch.rateDist::stdev            0.901238                       # Number of instructions fetched each cycle (Total)
system.cpu0.fetch.rateDist::underflows              0      0.00%      0.00% # Number of instructions fetched each cycle (Total)
system.cpu0.fetch.rateDist::0              1109128420     54.16%     54.16% # Number of instructions fetched each cycle (Total)
system.cpu0.fetch.rateDist::1               697077221     34.04%     88.20% # Number of instructions fetched each cycle (Total)
system.cpu0.fetch.rateDist::2               123660137      6.04%     94.24% # Number of instructions fetched each cycle (Total)
system.cpu0.fetch.rateDist::3                96959624      4.73%     98.97% # Number of instructions fetched each cycle (Total)
system.cpu0.fetch.rateDist::4                16337732      0.80%     99.77% # Number of instructions fetched each cycle (Total)
system.cpu0.fetch.rateDist::5                 2455633      0.12%     99.89% # Number of instructions fetched each cycle (Total)
system.cpu0.fetch.rateDist::6                  174264      0.01%     99.90% # Number of instructions fetched each cycle (Total)
system.cpu0.fetch.rateDist::7                     418      0.00%     99.90% # Number of instructions fetched each cycle (Total)
system.cpu0.fetch.rateDist::8                 2104916      0.10%    100.00% # Number of instructions fetched each cycle (Total)
system.cpu0.fetch.rateDist::overflows               0      0.00%    100.00% # Number of instructions fetched each cycle (Total)
system.cpu0.fetch.rateDist::min_value               0                       # Number of instructions fetched each cycle (Total)
system.cpu0.fetch.rateDist::max_value               8                       # Number of instructions fetched each cycle (Total)
system.cpu0.fetch.rateDist::total          2047898365                       # Number of instructions fetched each cycle (Total)
system.cpu0.fp_regfile_reads                       44                       # number of floating regfile reads
system.cpu0.fp_regfile_writes                      23                       # number of floating regfile writes
system.cpu0.idleCycles                      837479570                       # Total number of cycles that the CPU has spent unscheduled due to idling
system.cpu0.iew.branchMispredicts             9452199                       # Number of branch mispredicts detected at execute
system.cpu0.iew.exec_branches               318856305                       # Number of branches executed
system.cpu0.iew.exec_nop                            0                       # number of nop insts executed
system.cpu0.iew.exec_rate                    0.446277                       # Inst execution rate
system.cpu0.iew.exec_refs                   559300465                       # number of memory reference insts executed
system.cpu0.iew.exec_stores                 149903583                       # Number of stores executed
system.cpu0.iew.exec_swp                            0                       # number of swp insts executed
system.cpu0.iew.iewBlockCycles              218059788                       # Number of cycles IEW is blocking
system.cpu0.iew.iewDispLoadInsts            406785518                       # Number of dispatched load instructions
system.cpu0.iew.iewDispNonSpecInsts           1056771                       # Number of dispatched non-speculative instructions
system.cpu0.iew.iewDispSquashedInsts          4480106                       # Number of squashed instructions skipped by dispatch
system.cpu0.iew.iewDispStoreInsts           150337671                       # Number of dispatched store instructions
system.cpu0.iew.iewDispatchedInsts         1292034815                       # Number of instructions dispatched to IQ
system.cpu0.iew.iewExecLoadInsts            409396882                       # Number of load instructions executed
system.cpu0.iew.iewExecSquashedInsts          5103773                       # Number of squashed instructions skipped in execute
system.cpu0.iew.iewExecutedInsts           1287679004                       # Number of executed instructions
system.cpu0.iew.iewIQFullEvents               1025108                       # Number of times the IQ has become full, causing a stall
system.cpu0.iew.iewIdleCycles                       0                       # Number of cycles IEW is idle
system.cpu0.iew.iewLSQFullEvents              4211008                       # Number of times the LSQ has become full, causing a stall
system.cpu0.iew.iewSquashCycles               9384034                       # Number of cycles IEW is squashing
system.cpu0.iew.iewUnblockCycles              6472977                       # Number of cycles IEW is unblocking
system.cpu0.iew.lsq.thread0.blockedLoads            0                       # Number of blocked loads due to partial load-store forwarding
system.cpu0.iew.lsq.thread0.cacheBlocked       368418                       # Number of times an access to memory failed due to the cache being blocked
system.cpu0.iew.lsq.thread0.forwLoads        22031485                       # Number of loads that had data forwarded from stores
system.cpu0.iew.lsq.thread0.ignoredResponses        33375                       # Number of memory responses ignored because the instruction is squashed
system.cpu0.iew.lsq.thread0.invAddrLoads            0                       # Number of loads ignored due to an invalid address
system.cpu0.iew.lsq.thread0.invAddrSwpfs            0                       # Number of software prefetches ignored due to an invalid address
system.cpu0.iew.lsq.thread0.memOrderViolation         4227                       # Number of memory ordering violations
system.cpu0.iew.lsq.thread0.rescheduledLoads      4521943                       # Number of loads that were rescheduled
system.cpu0.iew.lsq.thread0.squashedLoads     18088249                       # Number of loads squashed
system.cpu0.iew.lsq.thread0.squashedStores      3030793                       # Number of stores squashed
system.cpu0.iew.memOrderViolationEvents          4227                       # Number of memory order violations
system.cpu0.iew.predictedNotTakenIncorrect       407267                       # Number of branches that were predicted not taken incorrectly
system.cpu0.iew.predictedTakenIncorrect       9044932                       # Number of branches that were predicted taken incorrectly
system.cpu0.iew.wb_consumers                592116910                       # num instructions consuming a value
system.cpu0.iew.wb_count                   1278878736                       # cumulative count of insts written-back
system.cpu0.iew.wb_fanout                    0.838643                       # average fanout of values written-back
system.cpu0.iew.wb_producers                496574561                       # num instructions producing a value
system.cpu0.iew.wb_rate                      0.443227                       # insts written-back per cycle
system.cpu0.iew.wb_sent                    1278946282                       # cumulative count of insts sent to commit
system.cpu0.int_regfile_reads              1579896551                       # number of integer regfile reads
system.cpu0.int_regfile_writes              820254768                       # number of integer regfile writes
system.cpu0.ipc                              0.433398                       # IPC: Instructions Per Cycle
system.cpu0.ipc_total                        0.433398                       # IPC: Total IPC of All Threads
system.cpu0.iq.FU_type_0::No_OpClass          2106136      0.16%      0.16% # Type of FU issued
system.cpu0.iq.FU_type_0::IntAlu            715232142     55.33%     55.49% # Type of FU issued
system.cpu0.iq.FU_type_0::IntMult            11848367      0.92%     56.40% # Type of FU issued
system.cpu0.iq.FU_type_0::IntDiv              2100394      0.16%     56.57% # Type of FU issued
system.cpu0.iq.FU_type_0::FloatAdd                  0      0.00%     56.57% # Type of FU issued
system.cpu0.iq.FU_type_0::FloatCmp                  4      0.00%     56.57% # Type of FU issued
system.cpu0.iq.FU_type_0::FloatCvt                 12      0.00%     56.57% # Type of FU issued
system.cpu0.iq.FU_type_0::FloatMult                 0      0.00%     56.57% # Type of FU issued
system.cpu0.iq.FU_type_0::FloatMultAcc              0      0.00%     56.57% # Type of FU issued
system.cpu0.iq.FU_type_0::FloatDiv                  2      0.00%     56.57% # Type of FU issued
system.cpu0.iq.FU_type_0::FloatMisc                 4      0.00%     56.57% # Type of FU issued
system.cpu0.iq.FU_type_0::FloatSqrt                 0      0.00%     56.57% # Type of FU issued
system.cpu0.iq.FU_type_0::SimdAdd                   0      0.00%     56.57% # Type of FU issued
system.cpu0.iq.FU_type_0::SimdAddAcc                0      0.00%     56.57% # Type of FU issued
system.cpu0.iq.FU_type_0::SimdAlu                   0      0.00%     56.57% # Type of FU issued
system.cpu0.iq.FU_type_0::SimdCmp                   0      0.00%     56.57% # Type of FU issued
system.cpu0.iq.FU_type_0::SimdCvt                   0      0.00%     56.57% # Type of FU issued
system.cpu0.iq.FU_type_0::SimdMisc                  0      0.00%     56.57% # Type of FU issued
system.cpu0.iq.FU_type_0::SimdMult                  0      0.00%     56.57% # Type of FU issued
system.cpu0.iq.FU_type_0::SimdMultAcc               0      0.00%     56.57% # Type of FU issued
system.cpu0.iq.FU_type_0::SimdShift                 0      0.00%     56.57% # Type of FU issued
system.cpu0.iq.FU_type_0::SimdShiftAcc              0      0.00%     56.57% # Type of FU issued
system.cpu0.iq.FU_type_0::SimdDiv                   0      0.00%     56.57% # Type of FU issued
system.cpu0.iq.FU_type_0::SimdSqrt                  0      0.00%     56.57% # Type of FU issued
system.cpu0.iq.FU_type_0::SimdFloatAdd              0      0.00%     56.57% # Type of FU issued
system.cpu0.iq.FU_type_0::SimdFloatAlu              0      0.00%     56.57% # Type of FU issued
system.cpu0.iq.FU_type_0::SimdFloatCmp              0      0.00%     56.57% # Type of FU issued
system.cpu0.iq.FU_type_0::SimdFloatCvt              0      0.00%     56.57% # Type of FU issued
system.cpu0.iq.FU_type_0::SimdFloatDiv              0      0.00%     56.57% # Type of FU issued
system.cpu0.iq.FU_type_0::SimdFloatMisc             0      0.00%     56.57% # Type of FU issued
system.cpu0.iq.FU_type_0::SimdFloatMult             0      0.00%     56.57% # Type of FU issued
system.cpu0.iq.FU_type_0::SimdFloatMultAcc            0      0.00%     56.57% # Type of FU issued
system.cpu0.iq.FU_type_0::SimdFloatSqrt             0      0.00%     56.57% # Type of FU issued
system.cpu0.iq.FU_type_0::SimdReduceAdd             0      0.00%     56.57% # Type of FU issued
system.cpu0.iq.FU_type_0::SimdReduceAlu             0      0.00%     56.57% # Type of FU issued
system.cpu0.iq.FU_type_0::SimdReduceCmp             0      0.00%     56.57% # Type of FU issued
system.cpu0.iq.FU_type_0::SimdFloatReduceAdd            0      0.00%     56.57% # Type of FU issued
system.cpu0.iq.FU_type_0::SimdFloatReduceCmp            0      0.00%     56.57% # Type of FU issued
system.cpu0.iq.FU_type_0::SimdAes                   0      0.00%     56.57% # Type of FU issued
system.cpu0.iq.FU_type_0::SimdAesMix                0      0.00%     56.57% # Type of FU issued
system.cpu0.iq.FU_type_0::SimdSha1Hash              0      0.00%     56.57% # Type of FU issued
system.cpu0.iq.FU_type_0::SimdSha1Hash2             0      0.00%     56.57% # Type of FU issued
system.cpu0.iq.FU_type_0::SimdSha256Hash            0      0.00%     56.57% # Type of FU issued
system.cpu0.iq.FU_type_0::SimdSha256Hash2            0      0.00%     56.57% # Type of FU issued
system.cpu0.iq.FU_type_0::SimdShaSigma2             0      0.00%     56.57% # Type of FU issued
system.cpu0.iq.FU_type_0::SimdShaSigma3             0      0.00%     56.57% # Type of FU issued
system.cpu0.iq.FU_type_0::SimdPredAlu               0      0.00%     56.57% # Type of FU issued
system.cpu0.iq.FU_type_0::MemRead           412486278     31.91%     88.47% # Type of FU issued
system.cpu0.iq.FU_type_0::MemWrite          149009409     11.53%    100.00% # Type of FU issued
system.cpu0.iq.FU_type_0::FloatMemRead              9      0.00%    100.00% # Type of FU issued
system.cpu0.iq.FU_type_0::FloatMemWrite            20      0.00%    100.00% # Type of FU issued
system.cpu0.iq.FU_type_0::IprAccess                 0      0.00%    100.00% # Type of FU issued
system.cpu0.iq.FU_type_0::InstPrefetch              0      0.00%    100.00% # Type of FU issued
system.cpu0.iq.FU_type_0::total            1292782777                       # Type of FU issued
system.cpu0.iq.fp_alu_accesses                     55                       # Number of floating point alu accesses
system.cpu0.iq.fp_inst_queue_reads                106                       # Number of floating instruction queue reads
system.cpu0.iq.fp_inst_queue_wakeup_accesses           51                       # Number of floating instruction queue wakeup accesses
system.cpu0.iq.fp_inst_queue_writes                52                       # Number of floating instruction queue writes
system.cpu0.iq.fu_busy_cnt                    1788373                       # FU busy when requested
system.cpu0.iq.fu_busy_rate                  0.001383                       # FU busy rate (busy events/executed inst)
system.cpu0.iq.fu_full::No_OpClass                  0      0.00%      0.00% # attempts to use FU when none available
system.cpu0.iq.fu_full::IntAlu                 350789     19.61%     19.61% # attempts to use FU when none available
system.cpu0.iq.fu_full::IntMult                     6      0.00%     19.62% # attempts to use FU when none available
system.cpu0.iq.fu_full::IntDiv                      0      0.00%     19.62% # attempts to use FU when none available
system.cpu0.iq.fu_full::FloatAdd                    0      0.00%     19.62% # attempts to use FU when none available
system.cpu0.iq.fu_full::FloatCmp                    0      0.00%     19.62% # attempts to use FU when none available
system.cpu0.iq.fu_full::FloatCvt                    0      0.00%     19.62% # attempts to use FU when none available
system.cpu0.iq.fu_full::FloatMult                   0      0.00%     19.62% # attempts to use FU when none available
system.cpu0.iq.fu_full::FloatMultAcc                0      0.00%     19.62% # attempts to use FU when none available
system.cpu0.iq.fu_full::FloatDiv                    0      0.00%     19.62% # attempts to use FU when none available
system.cpu0.iq.fu_full::FloatMisc                   0      0.00%     19.62% # attempts to use FU when none available
system.cpu0.iq.fu_full::FloatSqrt                   0      0.00%     19.62% # attempts to use FU when none available
system.cpu0.iq.fu_full::SimdAdd                     0      0.00%     19.62% # attempts to use FU when none available
system.cpu0.iq.fu_full::SimdAddAcc                  0      0.00%     19.62% # attempts to use FU when none available
system.cpu0.iq.fu_full::SimdAlu                     0      0.00%     19.62% # attempts to use FU when none available
system.cpu0.iq.fu_full::SimdCmp                     0      0.00%     19.62% # attempts to use FU when none available
system.cpu0.iq.fu_full::SimdCvt                     0      0.00%     19.62% # attempts to use FU when none available
system.cpu0.iq.fu_full::SimdMisc                    0      0.00%     19.62% # attempts to use FU when none available
system.cpu0.iq.fu_full::SimdMult                    0      0.00%     19.62% # attempts to use FU when none available
system.cpu0.iq.fu_full::SimdMultAcc                 0      0.00%     19.62% # attempts to use FU when none available
system.cpu0.iq.fu_full::SimdShift                   0      0.00%     19.62% # attempts to use FU when none available
system.cpu0.iq.fu_full::SimdShiftAcc                0      0.00%     19.62% # attempts to use FU when none available
system.cpu0.iq.fu_full::SimdDiv                     0      0.00%     19.62% # attempts to use FU when none available
system.cpu0.iq.fu_full::SimdSqrt                    0      0.00%     19.62% # attempts to use FU when none available
system.cpu0.iq.fu_full::SimdFloatAdd                0      0.00%     19.62% # attempts to use FU when none available
system.cpu0.iq.fu_full::SimdFloatAlu                0      0.00%     19.62% # attempts to use FU when none available
system.cpu0.iq.fu_full::SimdFloatCmp                0      0.00%     19.62% # attempts to use FU when none available
system.cpu0.iq.fu_full::SimdFloatCvt                0      0.00%     19.62% # attempts to use FU when none available
system.cpu0.iq.fu_full::SimdFloatDiv                0      0.00%     19.62% # attempts to use FU when none available
system.cpu0.iq.fu_full::SimdFloatMisc               0      0.00%     19.62% # attempts to use FU when none available
system.cpu0.iq.fu_full::SimdFloatMult               0      0.00%     19.62% # attempts to use FU when none available
system.cpu0.iq.fu_full::SimdFloatMultAcc            0      0.00%     19.62% # attempts to use FU when none available
system.cpu0.iq.fu_full::SimdFloatSqrt               0      0.00%     19.62% # attempts to use FU when none available
system.cpu0.iq.fu_full::SimdReduceAdd               0      0.00%     19.62% # attempts to use FU when none available
system.cpu0.iq.fu_full::SimdReduceAlu               0      0.00%     19.62% # attempts to use FU when none available
system.cpu0.iq.fu_full::SimdReduceCmp               0      0.00%     19.62% # attempts to use FU when none available
system.cpu0.iq.fu_full::SimdFloatReduceAdd            0      0.00%     19.62% # attempts to use FU when none available
system.cpu0.iq.fu_full::SimdFloatReduceCmp            0      0.00%     19.62% # attempts to use FU when none available
system.cpu0.iq.fu_full::SimdAes                     0      0.00%     19.62% # attempts to use FU when none available
system.cpu0.iq.fu_full::SimdAesMix                  0      0.00%     19.62% # attempts to use FU when none available
system.cpu0.iq.fu_full::SimdSha1Hash                0      0.00%     19.62% # attempts to use FU when none available
system.cpu0.iq.fu_full::SimdSha1Hash2               0      0.00%     19.62% # attempts to use FU when none available
system.cpu0.iq.fu_full::SimdSha256Hash              0      0.00%     19.62% # attempts to use FU when none available
system.cpu0.iq.fu_full::SimdSha256Hash2             0      0.00%     19.62% # attempts to use FU when none available
system.cpu0.iq.fu_full::SimdShaSigma2               0      0.00%     19.62% # attempts to use FU when none available
system.cpu0.iq.fu_full::SimdShaSigma3               0      0.00%     19.62% # attempts to use FU when none available
system.cpu0.iq.fu_full::SimdPredAlu                 0      0.00%     19.62% # attempts to use FU when none available
system.cpu0.iq.fu_full::MemRead               1167539     65.28%     84.90% # attempts to use FU when none available
system.cpu0.iq.fu_full::MemWrite               270035     15.10%    100.00% # attempts to use FU when none available
system.cpu0.iq.fu_full::FloatMemRead                0      0.00%    100.00% # attempts to use FU when none available
system.cpu0.iq.fu_full::FloatMemWrite               4      0.00%    100.00% # attempts to use FU when none available
system.cpu0.iq.fu_full::IprAccess                   0      0.00%    100.00% # attempts to use FU when none available
system.cpu0.iq.fu_full::InstPrefetch                0      0.00%    100.00% # attempts to use FU when none available
system.cpu0.iq.int_alu_accesses            1292464959                       # Number of integer alu accesses
system.cpu0.iq.int_inst_queue_reads        4635385909                       # Number of integer instruction queue reads
system.cpu0.iq.int_inst_queue_wakeup_accesses   1278878685                       # Number of integer instruction queue wakeup accesses
system.cpu0.iq.int_inst_queue_writes       1332501669                       # Number of integer instruction queue writes
system.cpu0.iq.iqInstsAdded                1288873854                       # Number of instructions added to the IQ (excludes non-spec)
system.cpu0.iq.iqInstsIssued               1292782777                       # Number of instructions issued
system.cpu0.iq.iqNonSpecInstsAdded            3160961                       # Number of non-speculative instructions added to the IQ
system.cpu0.iq.iqSquashedInstsExamined       40462976                       # Number of squashed instructions iterated over during squash; mainly for profiling
system.cpu0.iq.iqSquashedInstsIssued           133723                       # Number of squashed instructions issued
system.cpu0.iq.iqSquashedNonSpecRemoved           319                       # Number of squashed non-spec instructions that were removed
system.cpu0.iq.iqSquashedOperandsExamined     12932359                       # Number of squashed operands that are examined and possibly removed from graph
system.cpu0.iq.issued_per_cycle::samples   2047898365                       # Number of insts issued each cycle
system.cpu0.iq.issued_per_cycle::mean        0.631273                       # Number of insts issued each cycle
system.cpu0.iq.issued_per_cycle::stdev       0.854067                       # Number of insts issued each cycle
system.cpu0.iq.issued_per_cycle::underflows            0      0.00%      0.00% # Number of insts issued each cycle
system.cpu0.iq.issued_per_cycle::0         1145003042     55.91%     55.91% # Number of insts issued each cycle
system.cpu0.iq.issued_per_cycle::1          611205472     29.85%     85.76% # Number of insts issued each cycle
system.cpu0.iq.issued_per_cycle::2          207745102     10.14%     95.90% # Number of insts issued each cycle
system.cpu0.iq.issued_per_cycle::3           73507287      3.59%     99.49% # Number of insts issued each cycle
system.cpu0.iq.issued_per_cycle::4            8359998      0.41%     99.90% # Number of insts issued each cycle
system.cpu0.iq.issued_per_cycle::5             883247      0.04%     99.94% # Number of insts issued each cycle
system.cpu0.iq.issued_per_cycle::6             773989      0.04%     99.98% # Number of insts issued each cycle
system.cpu0.iq.issued_per_cycle::7             296745      0.01%     99.99% # Number of insts issued each cycle
system.cpu0.iq.issued_per_cycle::8             123483      0.01%    100.00% # Number of insts issued each cycle
system.cpu0.iq.issued_per_cycle::overflows            0      0.00%    100.00% # Number of insts issued each cycle
system.cpu0.iq.issued_per_cycle::min_value            0                       # Number of insts issued each cycle
system.cpu0.iq.issued_per_cycle::max_value            8                       # Number of insts issued each cycle
system.cpu0.iq.issued_per_cycle::total     2047898365                       # Number of insts issued each cycle
system.cpu0.iq.rate                          0.448046                       # Inst issue rate
system.cpu0.iq.vec_alu_accesses                     0                       # Number of vector alu accesses
system.cpu0.iq.vec_inst_queue_reads                 0                       # Number of vector instruction queue reads
system.cpu0.iq.vec_inst_queue_wakeup_accesses            0                       # Number of vector instruction queue wakeup accesses
system.cpu0.iq.vec_inst_queue_writes                0                       # Number of vector instruction queue writes
system.cpu0.itb.accesses                            0                       # DTB accesses
system.cpu0.itb.hits                                0                       # DTB hits
system.cpu0.itb.misses                              0                       # DTB misses
system.cpu0.itb.read_accesses                       0                       # DTB read accesses
system.cpu0.itb.read_hits                           0                       # DTB read hits
system.cpu0.itb.read_misses                         0                       # DTB read misses
system.cpu0.itb.write_accesses                      0                       # DTB write accesses
system.cpu0.itb.write_hits                          0                       # DTB write hits
system.cpu0.itb.write_misses                        0                       # DTB write misses
system.cpu0.memDep0.conflictingLoads          9573543                       # Number of conflicting loads.
system.cpu0.memDep0.conflictingStores          810685                       # Number of conflicting stores.
system.cpu0.memDep0.insertedLoads           406785518                       # Number of loads inserted to the mem dependence unit.
system.cpu0.memDep0.insertedStores          150337671                       # Number of stores inserted to the mem dependence unit.
system.cpu0.misc_regfile_reads                   2071                       # number of misc regfile reads
system.cpu0.misc_regfile_writes                    22                       # number of misc regfile writes
system.cpu0.numCycles                      2885377935                       # number of cpu cycles simulated
system.cpu0.numWorkItemsCompleted                   0                       # number of work items this cpu completed
system.cpu0.numWorkItemsStarted                     0                       # number of work items this cpu started
system.cpu0.quiesceCycles                    10370114                       # Total number of cycles that CPU has spent quiesced or waiting for an interrupt
system.cpu0.rename.BlockCycles              232856568                       # Number of cycles rename is blocking
system.cpu0.rename.CommittedMaps            800543506                       # Number of HB maps that are committed
system.cpu0.rename.IQFullEvents               7603629                       # Number of times rename has blocked due to IQ full
system.cpu0.rename.IdleCycles               856955969                       # Number of cycles rename is idle
system.cpu0.rename.LQFullEvents              12166367                       # Number of times rename has blocked due to LQ full
system.cpu0.rename.ROBFullEvents                12123                       # Number of times rename has blocked due to ROB full
system.cpu0.rename.RenameLookups           1601204587                       # Number of register rename lookups that rename has made
system.cpu0.rename.RenamedInsts            1304788990                       # Number of instructions processed by rename
system.cpu0.rename.RenamedOperands          841735195                       # Number of destination operands rename has renamed
system.cpu0.rename.RunCycles                898973209                       # Number of cycles rename is running
system.cpu0.rename.SQFullEvents              29211078                       # Number of times rename has blocked due to SQ full
system.cpu0.rename.SquashCycles               9384034                       # Number of cycles rename is squashing
system.cpu0.rename.UnblockCycles             49556576                       # Number of cycles rename is unblocking
system.cpu0.rename.UndoneMaps                41191685                       # Number of HB maps that are undone due to squashing
system.cpu0.rename.fp_rename_lookups               44                       # Number of floating rename lookups
system.cpu0.rename.int_rename_lookups      1601204543                       # Number of integer rename lookups
system.cpu0.rename.serializeStallCycles        172009                       # count of cycles rename stalled for serializing inst
system.cpu0.rename.serializingInsts              6259                       # count of serializing insts renamed
system.cpu0.rename.skidInsts                 17847897                       # count of insts added to the skid buffer
system.cpu0.rename.tempSerializingInsts          6235                       # count of temporary serializing insts renamed
system.cpu0.rob.rob_reads                  3295984225                       # The number of ROB reads
system.cpu0.rob.rob_writes                 2596856395                       # The number of ROB writes
system.cpu0.timesIdled                       27434922                       # Number of times that the entire CPU went into an idle state and unscheduled itself
system.cpu0.workload.numSyscalls                 2038                       # Number of system calls
system.cpu1.branchPred.BTBCorrect                   0                       # Number of correct BTB predictions (this stat may not work properly.
system.cpu1.branchPred.BTBHitPct            85.189751                       # BTB Hit Percentage
system.cpu1.branchPred.BTBHits               12341498                       # Number of BTB hits
system.cpu1.branchPred.BTBLookups            14487069                       # Number of BTB lookups
system.cpu1.branchPred.RASInCorrect                 0                       # Number of incorrect RAS predictions.
system.cpu1.branchPred.condIncorrect          1799226                       # Number of conditional branches incorrect
system.cpu1.branchPred.condPredicted         18030601                       # Number of conditional branches predicted
system.cpu1.branchPred.indirectHits            669104                       # Number of indirect target hits.
system.cpu1.branchPred.indirectLookups         681728                       # Number of indirect predictor lookups.
system.cpu1.branchPred.indirectMisses           12624                       # Number of indirect misses.
system.cpu1.branchPred.lookups               21059276                       # Number of BP lookups
system.cpu1.branchPred.usedRAS                      0                       # Number of times the RAS was used to get a target.
system.cpu1.branchPredindirectMispredicted        41854                       # Number of mispredicted indirect branches.
system.cpu1.commit.amos                       1050234                       # Number of atomic instructions committed
system.cpu1.commit.branchMispredicts          1329302                       # The number of times a branch was mispredicted
system.cpu1.commit.branches                  16226936                       # Number of branches committed
system.cpu1.commit.bw_lim_events              2050943                       # number cycles where commit BW limit reached
system.cpu1.commit.commitNonSpecStalls        3151416                       # The number of times commit has been forced to stall to communicate backwards
system.cpu1.commit.commitSquashedInsts       11093478                       # The number of squashed insts skipped by commit
system.cpu1.commit.committedInsts            67670247                       # Number of instructions committed
system.cpu1.commit.committedOps              68720693                       # Number of ops (including micro ops) committed
system.cpu1.commit.committed_per_cycle::samples    305071391                       # Number of insts commited each cycle
system.cpu1.commit.committed_per_cycle::mean     0.225261                       # Number of insts commited each cycle
system.cpu1.commit.committed_per_cycle::stdev     0.942316                       # Number of insts commited each cycle
system.cpu1.commit.committed_per_cycle::underflows            0      0.00%      0.00% # Number of insts commited each cycle
system.cpu1.commit.committed_per_cycle::0    276436016     90.61%     90.61% # Number of insts commited each cycle
system.cpu1.commit.committed_per_cycle::1     14399263      4.72%     95.33% # Number of insts commited each cycle
system.cpu1.commit.committed_per_cycle::2      5183259      1.70%     97.03% # Number of insts commited each cycle
system.cpu1.commit.committed_per_cycle::3      4022233      1.32%     98.35% # Number of insts commited each cycle
system.cpu1.commit.committed_per_cycle::4      1114335      0.37%     98.72% # Number of insts commited each cycle
system.cpu1.commit.committed_per_cycle::5       494997      0.16%     98.88% # Number of insts commited each cycle
system.cpu1.commit.committed_per_cycle::6      1044071      0.34%     99.22% # Number of insts commited each cycle
system.cpu1.commit.committed_per_cycle::7       326274      0.11%     99.33% # Number of insts commited each cycle
system.cpu1.commit.committed_per_cycle::8      2050943      0.67%    100.00% # Number of insts commited each cycle
system.cpu1.commit.committed_per_cycle::overflows            0      0.00%    100.00% # Number of insts commited each cycle
system.cpu1.commit.committed_per_cycle::min_value            0                       # Number of insts commited each cycle
system.cpu1.commit.committed_per_cycle::max_value            8                       # Number of insts commited each cycle
system.cpu1.commit.committed_per_cycle::total    305071391                       # Number of insts commited each cycle
system.cpu1.commit.fp_insts                        12                       # Number of committed floating point instructions.
system.cpu1.commit.function_calls             1074586                       # Number of function calls committed.
system.cpu1.commit.int_insts                 65705382                       # Number of committed integer instructions.
system.cpu1.commit.loads                     16750518                       # Number of loads committed
system.cpu1.commit.membars                    2100541                       # Number of memory barriers committed
system.cpu1.commit.op_class_0::No_OpClass      2100541      3.06%      3.06% # Class of committed instruction
system.cpu1.commit.op_class_0::IntAlu        43595935     63.44%     66.50% # Class of committed instruction
system.cpu1.commit.op_class_0::IntMult             44      0.00%     66.50% # Class of committed instruction
system.cpu1.commit.op_class_0::IntDiv              88      0.00%     66.50% # Class of committed instruction
system.cpu1.commit.op_class_0::FloatAdd             0      0.00%     66.50% # Class of committed instruction
system.cpu1.commit.op_class_0::FloatCmp             0      0.00%     66.50% # Class of committed instruction
system.cpu1.commit.op_class_0::FloatCvt             0      0.00%     66.50% # Class of committed instruction
system.cpu1.commit.op_class_0::FloatMult            0      0.00%     66.50% # Class of committed instruction
system.cpu1.commit.op_class_0::FloatMultAcc            0      0.00%     66.50% # Class of committed instruction
system.cpu1.commit.op_class_0::FloatDiv             0      0.00%     66.50% # Class of committed instruction
system.cpu1.commit.op_class_0::FloatMisc            0      0.00%     66.50% # Class of committed instruction
system.cpu1.commit.op_class_0::FloatSqrt            0      0.00%     66.50% # Class of committed instruction
system.cpu1.commit.op_class_0::SimdAdd              0      0.00%     66.50% # Class of committed instruction
system.cpu1.commit.op_class_0::SimdAddAcc            0      0.00%     66.50% # Class of committed instruction
system.cpu1.commit.op_class_0::SimdAlu              0      0.00%     66.50% # Class of committed instruction
system.cpu1.commit.op_class_0::SimdCmp              0      0.00%     66.50% # Class of committed instruction
system.cpu1.commit.op_class_0::SimdCvt              0      0.00%     66.50% # Class of committed instruction
system.cpu1.commit.op_class_0::SimdMisc             0      0.00%     66.50% # Class of committed instruction
system.cpu1.commit.op_class_0::SimdMult             0      0.00%     66.50% # Class of committed instruction
system.cpu1.commit.op_class_0::SimdMultAcc            0      0.00%     66.50% # Class of committed instruction
system.cpu1.commit.op_class_0::SimdShift            0      0.00%     66.50% # Class of committed instruction
system.cpu1.commit.op_class_0::SimdShiftAcc            0      0.00%     66.50% # Class of committed instruction
system.cpu1.commit.op_class_0::SimdDiv              0      0.00%     66.50% # Class of committed instruction
system.cpu1.commit.op_class_0::SimdSqrt             0      0.00%     66.50% # Class of committed instruction
system.cpu1.commit.op_class_0::SimdFloatAdd            0      0.00%     66.50% # Class of committed instruction
system.cpu1.commit.op_class_0::SimdFloatAlu            0      0.00%     66.50% # Class of committed instruction
system.cpu1.commit.op_class_0::SimdFloatCmp            0      0.00%     66.50% # Class of committed instruction
system.cpu1.commit.op_class_0::SimdFloatCvt            0      0.00%     66.50% # Class of committed instruction
system.cpu1.commit.op_class_0::SimdFloatDiv            0      0.00%     66.50% # Class of committed instruction
system.cpu1.commit.op_class_0::SimdFloatMisc            0      0.00%     66.50% # Class of committed instruction
system.cpu1.commit.op_class_0::SimdFloatMult            0      0.00%     66.50% # Class of committed instruction
system.cpu1.commit.op_class_0::SimdFloatMultAcc            0      0.00%     66.50% # Class of committed instruction
system.cpu1.commit.op_class_0::SimdFloatSqrt            0      0.00%     66.50% # Class of committed instruction
system.cpu1.commit.op_class_0::SimdReduceAdd            0      0.00%     66.50% # Class of committed instruction
system.cpu1.commit.op_class_0::SimdReduceAlu            0      0.00%     66.50% # Class of committed instruction
system.cpu1.commit.op_class_0::SimdReduceCmp            0      0.00%     66.50% # Class of committed instruction
system.cpu1.commit.op_class_0::SimdFloatReduceAdd            0      0.00%     66.50% # Class of committed instruction
system.cpu1.commit.op_class_0::SimdFloatReduceCmp            0      0.00%     66.50% # Class of committed instruction
system.cpu1.commit.op_class_0::SimdAes              0      0.00%     66.50% # Class of committed instruction
system.cpu1.commit.op_class_0::SimdAesMix            0      0.00%     66.50% # Class of committed instruction
system.cpu1.commit.op_class_0::SimdSha1Hash            0      0.00%     66.50% # Class of committed instruction
system.cpu1.commit.op_class_0::SimdSha1Hash2            0      0.00%     66.50% # Class of committed instruction
system.cpu1.commit.op_class_0::SimdSha256Hash            0      0.00%     66.50% # Class of committed instruction
system.cpu1.commit.op_class_0::SimdSha256Hash2            0      0.00%     66.50% # Class of committed instruction
system.cpu1.commit.op_class_0::SimdShaSigma2            0      0.00%     66.50% # Class of committed instruction
system.cpu1.commit.op_class_0::SimdShaSigma3            0      0.00%     66.50% # Class of committed instruction
system.cpu1.commit.op_class_0::SimdPredAlu            0      0.00%     66.50% # Class of committed instruction
system.cpu1.commit.op_class_0::MemRead       17800752     25.90%     92.40% # Class of committed instruction
system.cpu1.commit.op_class_0::MemWrite       5223321      7.60%    100.00% # Class of committed instruction
system.cpu1.commit.op_class_0::FloatMemRead            0      0.00%    100.00% # Class of committed instruction
system.cpu1.commit.op_class_0::FloatMemWrite           12      0.00%    100.00% # Class of committed instruction
system.cpu1.commit.op_class_0::IprAccess            0      0.00%    100.00% # Class of committed instruction
system.cpu1.commit.op_class_0::InstPrefetch            0      0.00%    100.00% # Class of committed instruction
system.cpu1.commit.op_class_0::total         68720693                       # Class of committed instruction
system.cpu1.commit.refs                      23024085                       # Number of memory references committed
system.cpu1.commit.swp_count                        0                       # Number of s/w prefetches committed
system.cpu1.commit.vec_insts                        0                       # Number of committed Vector instructions.
system.cpu1.committedInsts                   67670247                       # Number of Instructions Simulated
system.cpu1.committedOps                     68720693                       # Number of Ops (including micro ops) Simulated
system.cpu1.cpi                              4.555694                       # CPI: Cycles Per Instruction
system.cpu1.cpi_total                        4.555694                       # CPI: Total CPI of All Threads
system.cpu1.decode.BlockedCycles            246771356                       # Number of cycles decode is blocked
system.cpu1.decode.BranchMispred               498876                       # Number of times decode detected a branch misprediction
system.cpu1.decode.BranchResolved            11669545                       # Number of times decode resolved a branch
system.cpu1.decode.DecodedInsts              84353587                       # Number of instructions handled by decode
system.cpu1.decode.IdleCycles                16583054                       # Number of cycles decode is idle
system.cpu1.decode.RunCycles                 39960398                       # Number of cycles decode is running
system.cpu1.decode.SquashCycles               1330792                       # Number of cycles decode is squashing
system.cpu1.decode.SquashedInsts              1233041                       # Number of squashed instructions handled by decode
system.cpu1.decode.UnblockCycles              2715007                       # Number of cycles decode is unblocking
system.cpu1.dtb.accesses                            0                       # DTB accesses
system.cpu1.dtb.hits                                0                       # DTB hits
system.cpu1.dtb.misses                              0                       # DTB misses
system.cpu1.dtb.read_accesses                       0                       # DTB read accesses
system.cpu1.dtb.read_hits                           0                       # DTB read hits
system.cpu1.dtb.read_misses                         0                       # DTB read misses
system.cpu1.dtb.write_accesses                      0                       # DTB write accesses
system.cpu1.dtb.write_hits                          0                       # DTB write hits
system.cpu1.dtb.write_misses                        0                       # DTB write misses
system.cpu1.fetch.Branches                   21059276                       # Number of branches that fetch encountered
system.cpu1.fetch.CacheLines                 14693901                       # Number of cache lines fetched
system.cpu1.fetch.Cycles                    288692925                       # Number of cycles fetch has run and was not squashing or blocked
system.cpu1.fetch.IcacheSquashes               327619                       # Number of outstanding Icache misses that were squashed
system.cpu1.fetch.Insts                      88350469                       # Number of instructions fetch has processed
system.cpu1.fetch.MiscStallCycles                   1                       # Number of cycles fetch has spent waiting on interrupts, or bad addresses, or out of MSHRs
system.cpu1.fetch.SquashCycles                3601432                       # Number of cycles fetch has spent squashing
system.cpu1.fetch.branchRate                 0.068311                       # Number of branch fetches per cycle
system.cpu1.fetch.icacheStallCycles          16866965                       # Number of cycles fetch is stalled on an Icache miss
system.cpu1.fetch.predictedBranches          13010602                       # Number of branches that fetch has predicted taken
system.cpu1.fetch.rate                       0.286587                       # Number of inst fetches per cycle
system.cpu1.fetch.rateDist::samples         307360607                       # Number of instructions fetched each cycle (Total)
system.cpu1.fetch.rateDist::mean             0.290872                       # Number of instructions fetched each cycle (Total)
system.cpu1.fetch.rateDist::stdev            0.715707                       # Number of instructions fetched each cycle (Total)
system.cpu1.fetch.rateDist::underflows              0      0.00%      0.00% # Number of instructions fetched each cycle (Total)
system.cpu1.fetch.rateDist::0               250062611     81.36%     81.36% # Number of instructions fetched each cycle (Total)
system.cpu1.fetch.rateDist::1                36507424     11.88%     93.24% # Number of instructions fetched each cycle (Total)
system.cpu1.fetch.rateDist::2                12017012      3.91%     97.15% # Number of instructions fetched each cycle (Total)
system.cpu1.fetch.rateDist::3                 7027415      2.29%     99.43% # Number of instructions fetched each cycle (Total)
system.cpu1.fetch.rateDist::4                 1217444      0.40%     99.83% # Number of instructions fetched each cycle (Total)
system.cpu1.fetch.rateDist::5                  265023      0.09%     99.91% # Number of instructions fetched each cycle (Total)
system.cpu1.fetch.rateDist::6                  262728      0.09%    100.00% # Number of instructions fetched each cycle (Total)
system.cpu1.fetch.rateDist::7                       6      0.00%    100.00% # Number of instructions fetched each cycle (Total)
system.cpu1.fetch.rateDist::8                     944      0.00%    100.00% # Number of instructions fetched each cycle (Total)
system.cpu1.fetch.rateDist::overflows               0      0.00%    100.00% # Number of instructions fetched each cycle (Total)
system.cpu1.fetch.rateDist::min_value               0                       # Number of instructions fetched each cycle (Total)
system.cpu1.fetch.rateDist::max_value               8                       # Number of instructions fetched each cycle (Total)
system.cpu1.fetch.rateDist::total           307360607                       # Number of instructions fetched each cycle (Total)
system.cpu1.fp_regfile_reads                       12                       # number of floating regfile reads
system.cpu1.idleCycles                         924336                       # Total number of cycles that the CPU has spent unscheduled due to idling
system.cpu1.iew.branchMispredicts             1394248                       # Number of branch mispredicts detected at execute
system.cpu1.iew.exec_branches                17814405                       # Number of branches executed
system.cpu1.iew.exec_nop                            0                       # number of nop insts executed
system.cpu1.iew.exec_rate                    0.247877                       # Inst execution rate
system.cpu1.iew.exec_refs                    25972492                       # number of memory reference insts executed
system.cpu1.iew.exec_stores                   6629866                       # Number of stores executed
system.cpu1.iew.exec_swp                            0                       # number of swp insts executed
system.cpu1.iew.iewBlockCycles              203349160                       # Number of cycles IEW is blocking
system.cpu1.iew.iewDispLoadInsts             19713803                       # Number of dispatched load instructions
system.cpu1.iew.iewDispNonSpecInsts           1051139                       # Number of dispatched non-speculative instructions
system.cpu1.iew.iewDispSquashedInsts          1378776                       # Number of squashed instructions skipped by dispatch
system.cpu1.iew.iewDispStoreInsts             6980573                       # Number of dispatched store instructions
system.cpu1.iew.iewDispatchedInsts           79789718                       # Number of instructions dispatched to IQ
system.cpu1.iew.iewExecLoadInsts             19342626                       # Number of load instructions executed
system.cpu1.iew.iewExecSquashedInsts          1313072                       # Number of squashed instructions skipped in execute
system.cpu1.iew.iewExecutedInsts             76416900                       # Number of executed instructions
system.cpu1.iew.iewIQFullEvents               1071569                       # Number of times the IQ has become full, causing a stall
system.cpu1.iew.iewIdleCycles                       0                       # Number of cycles IEW is idle
system.cpu1.iew.iewLSQFullEvents              3721039                       # Number of times the LSQ has become full, causing a stall
system.cpu1.iew.iewSquashCycles               1330792                       # Number of cycles IEW is squashing
system.cpu1.iew.iewUnblockCycles              6011497                       # Number of cycles IEW is unblocking
system.cpu1.iew.lsq.thread0.blockedLoads            0                       # Number of blocked loads due to partial load-store forwarding
system.cpu1.iew.lsq.thread0.cacheBlocked        97785                       # Number of times an access to memory failed due to the cache being blocked
system.cpu1.iew.lsq.thread0.forwLoads          717552                       # Number of loads that had data forwarded from stores
system.cpu1.iew.lsq.thread0.ignoredResponses        32348                       # Number of memory responses ignored because the instruction is squashed
system.cpu1.iew.lsq.thread0.invAddrLoads            0                       # Number of loads ignored due to an invalid address
system.cpu1.iew.lsq.thread0.invAddrSwpfs            0                       # Number of software prefetches ignored due to an invalid address
system.cpu1.iew.lsq.thread0.memOrderViolation         2049                       # Number of memory ordering violations
system.cpu1.iew.lsq.thread0.rescheduledLoads        10647                       # Number of loads that were rescheduled
system.cpu1.iew.lsq.thread0.squashedLoads      2963285                       # Number of loads squashed
system.cpu1.iew.lsq.thread0.squashedStores       707006                       # Number of stores squashed
system.cpu1.iew.memOrderViolationEvents          2049                       # Number of memory order violations
system.cpu1.iew.predictedNotTakenIncorrect       404133                       # Number of branches that were predicted not taken incorrectly
system.cpu1.iew.predictedTakenIncorrect        990115                       # Number of branches that were predicted taken incorrectly
system.cpu1.iew.wb_consumers                 43878566                       # num instructions consuming a value
system.cpu1.iew.wb_count                     75235247                       # cumulative count of insts written-back
system.cpu1.iew.wb_fanout                    0.820728                       # average fanout of values written-back
system.cpu1.iew.wb_producers                 36012386                       # num instructions producing a value
system.cpu1.iew.wb_rate                      0.244045                       # insts written-back per cycle
system.cpu1.iew.wb_sent                      75287397                       # cumulative count of insts sent to commit
system.cpu1.int_regfile_reads                97050874                       # number of integer regfile reads
system.cpu1.int_regfile_writes               50414224                       # number of integer regfile writes
system.cpu1.ipc                              0.219506                       # IPC: Instructions Per Cycle
system.cpu1.ipc_total                        0.219506                       # IPC: Total IPC of All Threads
system.cpu1.iq.FU_type_0::No_OpClass          2100760      2.70%      2.70% # Type of FU issued
system.cpu1.iq.FU_type_0::IntAlu             49247981     63.36%     66.06% # Type of FU issued
system.cpu1.iq.FU_type_0::IntMult                  53      0.00%     66.06% # Type of FU issued
system.cpu1.iq.FU_type_0::IntDiv                   90      0.00%     66.06% # Type of FU issued
system.cpu1.iq.FU_type_0::FloatAdd                  0      0.00%     66.06% # Type of FU issued
system.cpu1.iq.FU_type_0::FloatCmp                  0      0.00%     66.06% # Type of FU issued
system.cpu1.iq.FU_type_0::FloatCvt                  0      0.00%     66.06% # Type of FU issued
system.cpu1.iq.FU_type_0::FloatMult                 0      0.00%     66.06% # Type of FU issued
system.cpu1.iq.FU_type_0::FloatMultAcc              0      0.00%     66.06% # Type of FU issued
system.cpu1.iq.FU_type_0::FloatDiv                  0      0.00%     66.06% # Type of FU issued
system.cpu1.iq.FU_type_0::FloatMisc                 0      0.00%     66.06% # Type of FU issued
system.cpu1.iq.FU_type_0::FloatSqrt                 0      0.00%     66.06% # Type of FU issued
system.cpu1.iq.FU_type_0::SimdAdd                   0      0.00%     66.06% # Type of FU issued
system.cpu1.iq.FU_type_0::SimdAddAcc                0      0.00%     66.06% # Type of FU issued
system.cpu1.iq.FU_type_0::SimdAlu                   0      0.00%     66.06% # Type of FU issued
system.cpu1.iq.FU_type_0::SimdCmp                   0      0.00%     66.06% # Type of FU issued
system.cpu1.iq.FU_type_0::SimdCvt                   0      0.00%     66.06% # Type of FU issued
system.cpu1.iq.FU_type_0::SimdMisc                  0      0.00%     66.06% # Type of FU issued
system.cpu1.iq.FU_type_0::SimdMult                  0      0.00%     66.06% # Type of FU issued
system.cpu1.iq.FU_type_0::SimdMultAcc               0      0.00%     66.06% # Type of FU issued
system.cpu1.iq.FU_type_0::SimdShift                 0      0.00%     66.06% # Type of FU issued
system.cpu1.iq.FU_type_0::SimdShiftAcc              0      0.00%     66.06% # Type of FU issued
system.cpu1.iq.FU_type_0::SimdDiv                   0      0.00%     66.06% # Type of FU issued
system.cpu1.iq.FU_type_0::SimdSqrt                  0      0.00%     66.06% # Type of FU issued
system.cpu1.iq.FU_type_0::SimdFloatAdd              0      0.00%     66.06% # Type of FU issued
system.cpu1.iq.FU_type_0::SimdFloatAlu              0      0.00%     66.06% # Type of FU issued
system.cpu1.iq.FU_type_0::SimdFloatCmp              0      0.00%     66.06% # Type of FU issued
system.cpu1.iq.FU_type_0::SimdFloatCvt              0      0.00%     66.06% # Type of FU issued
system.cpu1.iq.FU_type_0::SimdFloatDiv              0      0.00%     66.06% # Type of FU issued
system.cpu1.iq.FU_type_0::SimdFloatMisc             0      0.00%     66.06% # Type of FU issued
system.cpu1.iq.FU_type_0::SimdFloatMult             0      0.00%     66.06% # Type of FU issued
system.cpu1.iq.FU_type_0::SimdFloatMultAcc            0      0.00%     66.06% # Type of FU issued
system.cpu1.iq.FU_type_0::SimdFloatSqrt             0      0.00%     66.06% # Type of FU issued
system.cpu1.iq.FU_type_0::SimdReduceAdd             0      0.00%     66.06% # Type of FU issued
system.cpu1.iq.FU_type_0::SimdReduceAlu             0      0.00%     66.06% # Type of FU issued
system.cpu1.iq.FU_type_0::SimdReduceCmp             0      0.00%     66.06% # Type of FU issued
system.cpu1.iq.FU_type_0::SimdFloatReduceAdd            0      0.00%     66.06% # Type of FU issued
system.cpu1.iq.FU_type_0::SimdFloatReduceCmp            0      0.00%     66.06% # Type of FU issued
system.cpu1.iq.FU_type_0::SimdAes                   0      0.00%     66.06% # Type of FU issued
system.cpu1.iq.FU_type_0::SimdAesMix                0      0.00%     66.06% # Type of FU issued
system.cpu1.iq.FU_type_0::SimdSha1Hash              0      0.00%     66.06% # Type of FU issued
system.cpu1.iq.FU_type_0::SimdSha1Hash2             0      0.00%     66.06% # Type of FU issued
system.cpu1.iq.FU_type_0::SimdSha256Hash            0      0.00%     66.06% # Type of FU issued
system.cpu1.iq.FU_type_0::SimdSha256Hash2            0      0.00%     66.06% # Type of FU issued
system.cpu1.iq.FU_type_0::SimdShaSigma2             0      0.00%     66.06% # Type of FU issued
system.cpu1.iq.FU_type_0::SimdShaSigma3             0      0.00%     66.06% # Type of FU issued
system.cpu1.iq.FU_type_0::SimdPredAlu               0      0.00%     66.06% # Type of FU issued
system.cpu1.iq.FU_type_0::MemRead            20730863     26.67%     92.73% # Type of FU issued
system.cpu1.iq.FU_type_0::MemWrite            5650213      7.27%    100.00% # Type of FU issued
system.cpu1.iq.FU_type_0::FloatMemRead              0      0.00%    100.00% # Type of FU issued
system.cpu1.iq.FU_type_0::FloatMemWrite            12      0.00%    100.00% # Type of FU issued
system.cpu1.iq.FU_type_0::IprAccess                 0      0.00%    100.00% # Type of FU issued
system.cpu1.iq.FU_type_0::InstPrefetch              0      0.00%    100.00% # Type of FU issued
system.cpu1.iq.FU_type_0::total              77729972                       # Type of FU issued
system.cpu1.iq.fp_alu_accesses                     16                       # Number of floating point alu accesses
system.cpu1.iq.fp_inst_queue_reads                 28                       # Number of floating instruction queue reads
system.cpu1.iq.fp_inst_queue_wakeup_accesses           12                       # Number of floating instruction queue wakeup accesses
system.cpu1.iq.fp_inst_queue_writes                12                       # Number of floating instruction queue writes
system.cpu1.iq.fu_busy_cnt                    1580859                       # FU busy when requested
system.cpu1.iq.fu_busy_rate                  0.020338                       # FU busy rate (busy events/executed inst)
system.cpu1.iq.fu_full::No_OpClass                  0      0.00%      0.00% # attempts to use FU when none available
system.cpu1.iq.fu_full::IntAlu                 333121     21.07%     21.07% # attempts to use FU when none available
system.cpu1.iq.fu_full::IntMult                     0      0.00%     21.07% # attempts to use FU when none available
system.cpu1.iq.fu_full::IntDiv                      0      0.00%     21.07% # attempts to use FU when none available
system.cpu1.iq.fu_full::FloatAdd                    0      0.00%     21.07% # attempts to use FU when none available
system.cpu1.iq.fu_full::FloatCmp                    0      0.00%     21.07% # attempts to use FU when none available
system.cpu1.iq.fu_full::FloatCvt                    0      0.00%     21.07% # attempts to use FU when none available
system.cpu1.iq.fu_full::FloatMult                   0      0.00%     21.07% # attempts to use FU when none available
system.cpu1.iq.fu_full::FloatMultAcc                0      0.00%     21.07% # attempts to use FU when none available
system.cpu1.iq.fu_full::FloatDiv                    0      0.00%     21.07% # attempts to use FU when none available
system.cpu1.iq.fu_full::FloatMisc                   0      0.00%     21.07% # attempts to use FU when none available
system.cpu1.iq.fu_full::FloatSqrt                   0      0.00%     21.07% # attempts to use FU when none available
system.cpu1.iq.fu_full::SimdAdd                     0      0.00%     21.07% # attempts to use FU when none available
system.cpu1.iq.fu_full::SimdAddAcc                  0      0.00%     21.07% # attempts to use FU when none available
system.cpu1.iq.fu_full::SimdAlu                     0      0.00%     21.07% # attempts to use FU when none available
system.cpu1.iq.fu_full::SimdCmp                     0      0.00%     21.07% # attempts to use FU when none available
system.cpu1.iq.fu_full::SimdCvt                     0      0.00%     21.07% # attempts to use FU when none available
system.cpu1.iq.fu_full::SimdMisc                    0      0.00%     21.07% # attempts to use FU when none available
system.cpu1.iq.fu_full::SimdMult                    0      0.00%     21.07% # attempts to use FU when none available
system.cpu1.iq.fu_full::SimdMultAcc                 0      0.00%     21.07% # attempts to use FU when none available
system.cpu1.iq.fu_full::SimdShift                   0      0.00%     21.07% # attempts to use FU when none available
system.cpu1.iq.fu_full::SimdShiftAcc                0      0.00%     21.07% # attempts to use FU when none available
system.cpu1.iq.fu_full::SimdDiv                     0      0.00%     21.07% # attempts to use FU when none available
system.cpu1.iq.fu_full::SimdSqrt                    0      0.00%     21.07% # attempts to use FU when none available
system.cpu1.iq.fu_full::SimdFloatAdd                0      0.00%     21.07% # attempts to use FU when none available
system.cpu1.iq.fu_full::SimdFloatAlu                0      0.00%     21.07% # attempts to use FU when none available
system.cpu1.iq.fu_full::SimdFloatCmp                0      0.00%     21.07% # attempts to use FU when none available
system.cpu1.iq.fu_full::SimdFloatCvt                0      0.00%     21.07% # attempts to use FU when none available
system.cpu1.iq.fu_full::SimdFloatDiv                0      0.00%     21.07% # attempts to use FU when none available
system.cpu1.iq.fu_full::SimdFloatMisc               0      0.00%     21.07% # attempts to use FU when none available
system.cpu1.iq.fu_full::SimdFloatMult               0      0.00%     21.07% # attempts to use FU when none available
system.cpu1.iq.fu_full::SimdFloatMultAcc            0      0.00%     21.07% # attempts to use FU when none available
system.cpu1.iq.fu_full::SimdFloatSqrt               0      0.00%     21.07% # attempts to use FU when none available
system.cpu1.iq.fu_full::SimdReduceAdd               0      0.00%     21.07% # attempts to use FU when none available
system.cpu1.iq.fu_full::SimdReduceAlu               0      0.00%     21.07% # attempts to use FU when none available
system.cpu1.iq.fu_full::SimdReduceCmp               0      0.00%     21.07% # attempts to use FU when none available
system.cpu1.iq.fu_full::SimdFloatReduceAdd            0      0.00%     21.07% # attempts to use FU when none available
system.cpu1.iq.fu_full::SimdFloatReduceCmp            0      0.00%     21.07% # attempts to use FU when none available
system.cpu1.iq.fu_full::SimdAes                     0      0.00%     21.07% # attempts to use FU when none available
system.cpu1.iq.fu_full::SimdAesMix                  0      0.00%     21.07% # attempts to use FU when none available
system.cpu1.iq.fu_full::SimdSha1Hash                0      0.00%     21.07% # attempts to use FU when none available
system.cpu1.iq.fu_full::SimdSha1Hash2               0      0.00%     21.07% # attempts to use FU when none available
system.cpu1.iq.fu_full::SimdSha256Hash              0      0.00%     21.07% # attempts to use FU when none available
system.cpu1.iq.fu_full::SimdSha256Hash2             0      0.00%     21.07% # attempts to use FU when none available
system.cpu1.iq.fu_full::SimdShaSigma2               0      0.00%     21.07% # attempts to use FU when none available
system.cpu1.iq.fu_full::SimdShaSigma3               0      0.00%     21.07% # attempts to use FU when none available
system.cpu1.iq.fu_full::SimdPredAlu                 0      0.00%     21.07% # attempts to use FU when none available
system.cpu1.iq.fu_full::MemRead                980603     62.03%     83.10% # attempts to use FU when none available
system.cpu1.iq.fu_full::MemWrite               267131     16.90%    100.00% # attempts to use FU when none available
[...]
system.cpu1.dcache.WriteReq_mshr_miss_rate::.cpu1.data     0.047019                       # mshr miss rate for WriteReq accesses
system.cpu1.dcache.WriteReq_mshr_miss_rate::total     0.047019                       # mshr miss rate for WriteReq accesses
system.cpu1.dcache.WriteReq_avg_mshr_miss_latency::.cpu1.data 108337.620587                       # average WriteReq mshr miss latency
system.cpu1.dcache.WriteReq_avg_mshr_miss_latency::total 108337.620587                       # average WriteReq mshr miss latency
system.cpu1.dcache.LoadLockedReq_hits::.cpu1.data        17386                       # number of LoadLockedReq hits
system.cpu1.dcache.LoadLockedReq_hits::total        17386                       # number of LoadLockedReq hits
system.cpu1.dcache.LoadLockedReq_misses::.cpu1.data          666                       # number of LoadLockedReq misses
system.cpu1.dcache.LoadLockedReq_misses::total          666                       # number of LoadLockedReq misses
system.cpu1.dcache.LoadLockedReq_miss_latency::.cpu1.data     15726000                       # number of LoadLockedReq miss cycles
system.cpu1.dcache.LoadLockedReq_miss_latency::total     15726000                       # number of LoadLockedReq miss cycles
system.cpu1.dcache.LoadLockedReq_accesses::.cpu1.data        18052                       # number of LoadLockedReq accesses(hits+misses)
system.cpu1.dcache.LoadLockedReq_accesses::total        18052                       # number of LoadLockedReq accesses(hits+misses)
system.cpu1.dcache.LoadLockedReq_miss_rate::.cpu1.data     0.036893                       # miss rate for LoadLockedReq accesses
system.cpu1.dcache.LoadLockedReq_miss_rate::total     0.036893                       # miss rate for LoadLockedReq accesses
system.cpu1.dcache.LoadLockedReq_avg_miss_latency::.cpu1.data 23612.612613                       # average LoadLockedReq miss latency
system.cpu1.dcache.LoadLockedReq_avg_miss_latency::total 23612.612613                       # average LoadLockedReq miss latency
system.cpu1.dcache.LoadLockedReq_mshr_hits::.cpu1.data          135                       # number of LoadLockedReq MSHR hits
system.cpu1.dcache.LoadLockedReq_mshr_hits::total          135                       # number of LoadLockedReq MSHR hits
system.cpu1.dcache.LoadLockedReq_mshr_misses::.cpu1.data          531                       # number of LoadLockedReq MSHR misses
system.cpu1.dcache.LoadLockedReq_mshr_misses::total          531                       # number of LoadLockedReq MSHR misses
system.cpu1.dcache.LoadLockedReq_mshr_miss_latency::.cpu1.data     10382000                       # number of LoadLockedReq MSHR miss cycles
system.cpu1.dcache.LoadLockedReq_mshr_miss_latency::total     10382000                       # number of LoadLockedReq MSHR miss cycles
system.cpu1.dcache.LoadLockedReq_mshr_miss_rate::.cpu1.data     0.029415                       # mshr miss rate for LoadLockedReq accesses
system.cpu1.dcache.LoadLockedReq_mshr_miss_rate::total     0.029415                       # mshr miss rate for LoadLockedReq accesses
system.cpu1.dcache.LoadLockedReq_avg_mshr_miss_latency::.cpu1.data 19551.789077                       # average LoadLockedReq mshr miss latency
system.cpu1.dcache.LoadLockedReq_avg_mshr_miss_latency::total 19551.789077                       # average LoadLockedReq mshr miss latency
system.cpu1.dcache.StoreCondReq_hits::.cpu1.data        16513                       # number of StoreCondReq hits
system.cpu1.dcache.StoreCondReq_hits::total        16513                       # number of StoreCondReq hits
system.cpu1.dcache.StoreCondReq_misses::.cpu1.data          772                       # number of StoreCondReq misses
system.cpu1.dcache.StoreCondReq_misses::total          772                       # number of StoreCondReq misses
system.cpu1.dcache.StoreCondReq_miss_latency::.cpu1.data      6065000                       # number of StoreCondReq miss cycles
system.cpu1.dcache.StoreCondReq_miss_latency::total      6065000                       # number of StoreCondReq miss cycles
system.cpu1.dcache.StoreCondReq_accesses::.cpu1.data        17285                       # number of StoreCondReq accesses(hits+misses)
system.cpu1.dcache.StoreCondReq_accesses::total        17285                       # number of StoreCondReq accesses(hits+misses)
system.cpu1.dcache.StoreCondReq_miss_rate::.cpu1.data     0.044663                       # miss rate for StoreCondReq accesses
system.cpu1.dcache.StoreCondReq_miss_rate::total     0.044663                       # miss rate for StoreCondReq accesses
system.cpu1.dcache.StoreCondReq_avg_miss_latency::.cpu1.data  7856.217617                       # average StoreCondReq miss latency
system.cpu1.dcache.StoreCondReq_avg_miss_latency::total  7856.217617                       # average StoreCondReq miss latency
system.cpu1.dcache.StoreCondReq_mshr_misses::.cpu1.data          764                       # number of StoreCondReq MSHR misses
system.cpu1.dcache.StoreCondReq_mshr_misses::total          764                       # number of StoreCondReq MSHR misses
system.cpu1.dcache.StoreCondReq_mshr_miss_latency::.cpu1.data      5358000                       # number of StoreCondReq MSHR miss cycles
system.cpu1.dcache.StoreCondReq_mshr_miss_latency::total      5358000                       # number of StoreCondReq MSHR miss cycles
system.cpu1.dcache.StoreCondReq_mshr_miss_rate::.cpu1.data     0.044200                       # mshr miss rate for StoreCondReq accesses
system.cpu1.dcache.StoreCondReq_mshr_miss_rate::total     0.044200                       # mshr miss rate for StoreCondReq accesses
system.cpu1.dcache.StoreCondReq_avg_mshr_miss_latency::.cpu1.data  7013.089005                       # average StoreCondReq mshr miss latency
system.cpu1.dcache.StoreCondReq_avg_mshr_miss_latency::total  7013.089005                       # average StoreCondReq mshr miss latency
system.cpu1.dcache.StoreCondFailReq_miss_latency::.cpu1.data       961000                       # number of StoreCondFailReq miss cycles
system.cpu1.dcache.StoreCondFailReq_miss_latency::total       961000                       # number of StoreCondFailReq miss cycles
system.cpu1.dcache.StoreCondFailReq_avg_miss_latency::.cpu1.data          inf                       # average StoreCondFailReq miss latency
system.cpu1.dcache.StoreCondFailReq_avg_miss_latency::total          inf                       # average StoreCondFailReq miss latency
system.cpu1.dcache.StoreCondFailReq_mshr_miss_latency::.cpu1.data       904000                       # number of StoreCondFailReq MSHR miss cycles
system.cpu1.dcache.StoreCondFailReq_mshr_miss_latency::total       904000                       # number of StoreCondFailReq MSHR miss cycles
system.cpu1.dcache.StoreCondFailReq_avg_mshr_miss_latency::.cpu1.data          inf                       # average StoreCondFailReq mshr miss latency
system.cpu1.dcache.StoreCondFailReq_avg_mshr_miss_latency::total          inf                       # average StoreCondFailReq mshr miss latency
system.cpu1.dcache.SwapReq_hits::.cpu1.data          659                       # number of SwapReq hits
system.cpu1.dcache.SwapReq_hits::total            659                       # number of SwapReq hits
system.cpu1.dcache.SwapReq_misses::.cpu1.data         1282                       # number of SwapReq misses
system.cpu1.dcache.SwapReq_misses::total         1282                       # number of SwapReq misses
system.cpu1.dcache.SwapReq_miss_latency::.cpu1.data     12405500                       # number of SwapReq miss cycles
system.cpu1.dcache.SwapReq_miss_latency::total     12405500                       # number of SwapReq miss cycles
system.cpu1.dcache.SwapReq_accesses::.cpu1.data         1941                       # number of SwapReq accesses(hits+misses)
system.cpu1.dcache.SwapReq_accesses::total         1941                       # number of SwapReq accesses(hits+misses)
system.cpu1.dcache.SwapReq_miss_rate::.cpu1.data     0.660484                       # miss rate for SwapReq accesses
system.cpu1.dcache.SwapReq_miss_rate::total     0.660484                       # miss rate for SwapReq accesses
system.cpu1.dcache.SwapReq_avg_miss_latency::.cpu1.data  9676.677067                       # average SwapReq miss latency
system.cpu1.dcache.SwapReq_avg_miss_latency::total  9676.677067                       # average SwapReq miss latency
system.cpu1.dcache.SwapReq_mshr_hits::.cpu1.data            1                       # number of SwapReq MSHR hits
system.cpu1.dcache.SwapReq_mshr_hits::total            1                       # number of SwapReq MSHR hits
system.cpu1.dcache.SwapReq_mshr_misses::.cpu1.data         1281                       # number of SwapReq MSHR misses
system.cpu1.dcache.SwapReq_mshr_misses::total         1281                       # number of SwapReq MSHR misses
system.cpu1.dcache.SwapReq_mshr_miss_latency::.cpu1.data     11119500                       # number of SwapReq MSHR miss cycles
system.cpu1.dcache.SwapReq_mshr_miss_latency::total     11119500                       # number of SwapReq MSHR miss cycles
system.cpu1.dcache.SwapReq_mshr_miss_rate::.cpu1.data     0.659969                       # mshr miss rate for SwapReq accesses
system.cpu1.dcache.SwapReq_mshr_miss_rate::total     0.659969                       # mshr miss rate for SwapReq accesses
system.cpu1.dcache.SwapReq_avg_mshr_miss_latency::.cpu1.data  8680.327869                       # average SwapReq mshr miss latency
system.cpu1.dcache.SwapReq_avg_mshr_miss_latency::total  8680.327869                       # average SwapReq mshr miss latency
system.cpu1.dcache.tags.pwrStateResidencyTicks::UNDEFINED  45818322500                       # Cumulative time (in ticks) in various power states
system.cpu1.dcache.tags.tagsinuse           31.442433                       # Cycle average of tags in use
system.cpu1.dcache.tags.total_refs            7928734                       # Total number of references to valid blocks.
system.cpu1.dcache.tags.sampled_refs           498582                       # Sample count of references to valid blocks.
system.cpu1.dcache.tags.avg_refs            15.902568                       # Average number of references to valid blocks.
system.cpu1.dcache.tags.warmup_cycle                0                       # Cycle when the warmup percentage was hit.
system.cpu1.dcache.tags.occ_blocks::.cpu1.data    31.442433                       # Average occupied blocks per requestor
system.cpu1.dcache.tags.occ_percent::.cpu1.data     0.982576                       # Average percentage of cache occupancy
system.cpu1.dcache.tags.occ_percent::total     0.982576                       # Average percentage of cache occupancy
system.cpu1.dcache.tags.occ_task_id_blocks::1024           31                       # Occupied blocks per task id
system.cpu1.dcache.tags.age_task_id_blocks_1024::1           31                       # Occupied blocks per task id
system.cpu1.dcache.tags.occ_task_id_percent::1024     0.968750                       # Percentage of cache occupancy per task id
system.cpu1.dcache.tags.tag_accesses         25976459                       # Number of tag accesses
system.cpu1.dcache.tags.data_accesses        25976459                       # Number of data accesses
system.cpu_clk_domain.clock                       500                       # Clock period in ticks
system.tol2bus.pwrStateResidencyTicks::UNDEFINED  45818322500                       # Cumulative time (in ticks) in various power states
system.tol2bus.trans_dist::ReadResp           1688215                       # Transaction distribution
system.tol2bus.trans_dist::ReadRespWithInvalidate           14                       # Transaction distribution
system.tol2bus.trans_dist::WritebackDirty      1869753                       # Transaction distribution
system.tol2bus.trans_dist::WritebackClean      1216810                       # Transaction distribution
system.tol2bus.trans_dist::CleanEvict         3214881                       # Transaction distribution
system.tol2bus.trans_dist::UpgradeReq            4984                       # Transaction distribution
system.tol2bus.trans_dist::SCUpgradeReq          3638                       # Transaction distribution
system.tol2bus.trans_dist::UpgradeResp           8622                       # Transaction distribution
system.tol2bus.trans_dist::SCUpgradeFailReq          167                       # Transaction distribution
system.tol2bus.trans_dist::UpgradeFailResp          167                       # Transaction distribution
system.tol2bus.trans_dist::ReadExReq           481993                       # Transaction distribution
system.tol2bus.trans_dist::ReadExResp          481995                       # Transaction distribution
system.tol2bus.trans_dist::ReadCleanReq        119486                       # Transaction distribution
system.tol2bus.trans_dist::ReadSharedReq      1568742                       # Transaction distribution
system.tol2bus.trans_dist::InvalidateReq          123                       # Transaction distribution
system.tol2bus.trans_dist::InvalidateResp          123                       # Transaction distribution
system.tol2bus.pkt_count_system.cpu0.icache.mem_side::system.l2.cpu_side       217736                       # Packet count per connected master and slave (bytes)
system.tol2bus.pkt_count_system.cpu0.dcache.mem_side::system.l2.cpu_side      1649441                       # Packet count per connected master and slave (bytes)
system.tol2bus.pkt_count_system.cpu1.icache.mem_side::system.l2.cpu_side        47037                       # Packet count per connected master and slave (bytes)
system.tol2bus.pkt_count_system.cpu1.dcache.mem_side::system.l2.cpu_side      1490304                       # Packet count per connected master and slave (bytes)
system.tol2bus.pkt_count_system.cpu2.icache.mem_side::system.l2.cpu_side        47361                       # Packet count per connected master and slave (bytes)
system.tol2bus.pkt_count_system.cpu2.dcache.mem_side::system.l2.cpu_side      1498143                       # Packet count per connected master and slave (bytes)
system.tol2bus.pkt_count_system.cpu3.icache.mem_side::system.l2.cpu_side        46326                       # Packet count per connected master and slave (bytes)
system.tol2bus.pkt_count_system.cpu3.dcache.mem_side::system.l2.cpu_side      1496356                       # Packet count per connected master and slave (bytes)
system.tol2bus.pkt_count::total               6492704                       # Packet count per connected master and slave (bytes)
system.tol2bus.pkt_size_system.cpu0.icache.mem_side::system.l2.cpu_side      9290112                       # Cumulative packet size per connected master and slave (bytes)
system.tol2bus.pkt_size_system.cpu0.dcache.mem_side::system.l2.cpu_side     70102592                       # Cumulative packet size per connected master and slave (bytes)
system.tol2bus.pkt_size_system.cpu1.icache.mem_side::system.l2.cpu_side      2006912                       # Cumulative packet size per connected master and slave (bytes)
system.tol2bus.pkt_size_system.cpu1.dcache.mem_side::system.l2.cpu_side     63322816                       # Cumulative packet size per connected master and slave (bytes)
system.tol2bus.pkt_size_system.cpu2.icache.mem_side::system.l2.cpu_side      2020736                       # Cumulative packet size per connected master and slave (bytes)
system.tol2bus.pkt_size_system.cpu2.dcache.mem_side::system.l2.cpu_side     63646784                       # Cumulative packet size per connected master and slave (bytes)
system.tol2bus.pkt_size_system.cpu3.icache.mem_side::system.l2.cpu_side      1976576                       # Cumulative packet size per connected master and slave (bytes)
system.tol2bus.pkt_size_system.cpu3.dcache.mem_side::system.l2.cpu_side     63571392                       # Cumulative packet size per connected master and slave (bytes)
system.tol2bus.pkt_size::total              275937920                       # Cumulative packet size per connected master and slave (bytes)
system.tol2bus.snoops                         4167009                       # Total snoops (count)
system.tol2bus.snoopTraffic                  60507136                       # Total snoop traffic (bytes)
system.tol2bus.snoop_fanout::samples          6325061                       # Request fanout histogram
system.tol2bus.snoop_fanout::mean            0.366865                       # Request fanout histogram
system.tol2bus.snoop_fanout::stdev           0.550076                       # Request fanout histogram
system.tol2bus.snoop_fanout::underflows             0      0.00%      0.00% # Request fanout histogram
system.tol2bus.snoop_fanout::0                4150501     65.62%     65.62% # Request fanout histogram
system.tol2bus.snoop_fanout::1                2091555     33.07%     98.69% # Request fanout histogram
system.tol2bus.snoop_fanout::2                  33721      0.53%     99.22% # Request fanout histogram
system.tol2bus.snoop_fanout::3                  35691      0.56%     99.79% # Request fanout histogram
system.tol2bus.snoop_fanout::4                  13593      0.21%    100.00% # Request fanout histogram
system.tol2bus.snoop_fanout::5                      0      0.00%    100.00% # Request fanout histogram
system.tol2bus.snoop_fanout::6                      0      0.00%    100.00% # Request fanout histogram
system.tol2bus.snoop_fanout::7                      0      0.00%    100.00% # Request fanout histogram
system.tol2bus.snoop_fanout::8                      0      0.00%    100.00% # Request fanout histogram
system.tol2bus.snoop_fanout::overflows              0      0.00%    100.00% # Request fanout histogram
system.tol2bus.snoop_fanout::min_value              0                       # Request fanout histogram
system.tol2bus.snoop_fanout::max_value              4                       # Request fanout histogram
system.tol2bus.snoop_fanout::total            6325061                       # Request fanout histogram
system.tol2bus.reqLayer0.occupancy         4322889901                       # Layer occupancy (ticks)
system.tol2bus.reqLayer0.utilization              9.4                       # Layer utilization (%)
system.tol2bus.respLayer5.occupancy         753081010                       # Layer occupancy (ticks)
system.tol2bus.respLayer5.utilization             1.6                       # Layer utilization (%)
system.tol2bus.respLayer4.occupancy          25297083                       # Layer occupancy (ticks)
system.tol2bus.respLayer4.utilization             0.1                       # Layer utilization (%)
system.tol2bus.respLayer7.occupancy         752291461                       # Layer occupancy (ticks)
system.tol2bus.respLayer7.utilization             1.6                       # Layer utilization (%)
system.tol2bus.respLayer6.occupancy          24783547                       # Layer occupancy (ticks)
system.tol2bus.respLayer6.utilization             0.1                       # Layer utilization (%)
system.tol2bus.respLayer1.occupancy         827546171                       # Layer occupancy (ticks)
system.tol2bus.respLayer1.utilization             1.8                       # Layer utilization (%)
system.tol2bus.respLayer0.occupancy         109129362                       # Layer occupancy (ticks)
system.tol2bus.respLayer0.utilization             0.2                       # Layer utilization (%)
system.tol2bus.respLayer3.occupancy         749197969                       # Layer occupancy (ticks)
system.tol2bus.respLayer3.utilization             1.6                       # Layer utilization (%)
system.tol2bus.respLayer2.occupancy          25200990                       # Layer occupancy (ticks)
system.tol2bus.respLayer2.utilization             0.1                       # Layer utilization (%)

---------- End Simulation Statistics   ----------
