
---------- Begin Simulation Statistics ----------
<<<<<<< HEAD
final_tick                               493096181500                       # Number of ticks from beginning of simulation (restored from checkpoints and never reset)
host_inst_rate                                  99726                       # Simulator instruction rate (inst/s)
host_mem_usage                                 738824                       # Number of bytes of host memory used
host_op_rate                                   100058                       # Simulator op (including micro ops) rate (op/s)
host_seconds                                  6151.08                       # Real time elapsed on the host
host_tick_rate                               80164214                       # Simulator tick rate (ticks/s)
sim_freq                                 1000000000000                       # Frequency of simulated ticks
sim_insts                                   613423753                       # Number of instructions simulated
sim_ops                                     615462514                       # Number of ops (including micro ops) simulated
sim_seconds                                  0.493096                       # Number of seconds simulated
sim_ticks                                493096181500                       # Number of ticks simulated
system.cpu0.branchPred.BTBCorrect                   0                       # Number of correct BTB predictions (this stat may not work properly.
system.cpu0.branchPred.BTBHitPct            85.958270                       # BTB Hit Percentage
system.cpu0.branchPred.BTBHits               76350231                       # Number of BTB hits
system.cpu0.branchPred.BTBLookups            88822438                       # Number of BTB lookups
system.cpu0.branchPred.RASInCorrect                 0                       # Number of incorrect RAS predictions.
system.cpu0.branchPred.condIncorrect          6509545                       # Number of conditional branches incorrect
system.cpu0.branchPred.condPredicted        119798556                       # Number of conditional branches predicted
system.cpu0.branchPred.indirectHits          11676838                       # Number of indirect target hits.
system.cpu0.branchPred.indirectLookups       11807952                       # Number of indirect predictor lookups.
system.cpu0.branchPred.indirectMisses          131114                       # Number of indirect misses.
system.cpu0.branchPred.lookups              155461264                       # Number of BP lookups
system.cpu0.branchPred.usedRAS                      0                       # Number of times the RAS was used to get a target.
system.cpu0.branchPredindirectMispredicted      1052868                       # Number of mispredicted indirect branches.
system.cpu0.commit.amos                        509395                       # Number of atomic instructions committed
system.cpu0.commit.branchMispredicts          4601366                       # The number of times a branch was mispredicted
system.cpu0.commit.branches                 138976453                       # Number of branches committed
system.cpu0.commit.bw_lim_events             17470727                       # number cycles where commit BW limit reached
system.cpu0.commit.commitNonSpecStalls        1532351                       # The number of times commit has been forced to stall to communicate backwards
system.cpu0.commit.commitSquashedInsts       54246751                       # The number of squashed insts skipped by commit
system.cpu0.commit.committedInsts           561814439                       # Number of instructions committed
system.cpu0.commit.committedOps             562325100                       # Number of ops (including micro ops) committed
system.cpu0.commit.committed_per_cycle::samples    890837134                       # Number of insts commited each cycle
system.cpu0.commit.committed_per_cycle::mean     0.631232                       # Number of insts commited each cycle
system.cpu0.commit.committed_per_cycle::stdev     1.431102                       # Number of insts commited each cycle
system.cpu0.commit.committed_per_cycle::underflows            0      0.00%      0.00% # Number of insts commited each cycle
system.cpu0.commit.committed_per_cycle::0    627417520     70.43%     70.43% # Number of insts commited each cycle
system.cpu0.commit.committed_per_cycle::1    157255584     17.65%     88.08% # Number of insts commited each cycle
system.cpu0.commit.committed_per_cycle::2     34105295      3.83%     91.91% # Number of insts commited each cycle
system.cpu0.commit.committed_per_cycle::3     34729360      3.90%     95.81% # Number of insts commited each cycle
system.cpu0.commit.committed_per_cycle::4     12124693      1.36%     97.17% # Number of insts commited each cycle
system.cpu0.commit.committed_per_cycle::5      4310976      0.48%     97.65% # Number of insts commited each cycle
system.cpu0.commit.committed_per_cycle::6      1109475      0.12%     97.78% # Number of insts commited each cycle
system.cpu0.commit.committed_per_cycle::7      2313504      0.26%     98.04% # Number of insts commited each cycle
system.cpu0.commit.committed_per_cycle::8     17470727      1.96%    100.00% # Number of insts commited each cycle
system.cpu0.commit.committed_per_cycle::overflows            0      0.00%    100.00% # Number of insts commited each cycle
system.cpu0.commit.committed_per_cycle::min_value            0                       # Number of insts commited each cycle
system.cpu0.commit.committed_per_cycle::max_value            8                       # Number of insts commited each cycle
system.cpu0.commit.committed_per_cycle::total    890837134                       # Number of insts commited each cycle
system.cpu0.commit.fp_insts                        50                       # Number of committed floating point instructions.
system.cpu0.commit.function_calls            11672256                       # Number of function calls committed.
system.cpu0.commit.int_insts                543456615                       # Number of committed integer instructions.
system.cpu0.commit.loads                    174761087                       # Number of loads committed
system.cpu0.commit.membars                    1019940                       # Number of memory barriers committed
system.cpu0.commit.op_class_0::No_OpClass      1019946      0.18%      0.18% # Class of committed instruction
system.cpu0.commit.op_class_0::IntAlu       311064316     55.32%     55.50% # Class of committed instruction
system.cpu0.commit.op_class_0::IntMult        4137156      0.74%     56.23% # Class of committed instruction
system.cpu0.commit.op_class_0::IntDiv         1017773      0.18%     56.42% # Class of committed instruction
system.cpu0.commit.op_class_0::FloatAdd             0      0.00%     56.42% # Class of committed instruction
system.cpu0.commit.op_class_0::FloatCmp             4      0.00%     56.42% # Class of committed instruction
system.cpu0.commit.op_class_0::FloatCvt            12      0.00%     56.42% # Class of committed instruction
system.cpu0.commit.op_class_0::FloatMult            0      0.00%     56.42% # Class of committed instruction
system.cpu0.commit.op_class_0::FloatMultAcc            0      0.00%     56.42% # Class of committed instruction
system.cpu0.commit.op_class_0::FloatDiv             2      0.00%     56.42% # Class of committed instruction
system.cpu0.commit.op_class_0::FloatMisc            4      0.00%     56.42% # Class of committed instruction
system.cpu0.commit.op_class_0::FloatSqrt            0      0.00%     56.42% # Class of committed instruction
system.cpu0.commit.op_class_0::SimdAdd              0      0.00%     56.42% # Class of committed instruction
system.cpu0.commit.op_class_0::SimdAddAcc            0      0.00%     56.42% # Class of committed instruction
system.cpu0.commit.op_class_0::SimdAlu              0      0.00%     56.42% # Class of committed instruction
system.cpu0.commit.op_class_0::SimdCmp              0      0.00%     56.42% # Class of committed instruction
system.cpu0.commit.op_class_0::SimdCvt              0      0.00%     56.42% # Class of committed instruction
system.cpu0.commit.op_class_0::SimdMisc             0      0.00%     56.42% # Class of committed instruction
system.cpu0.commit.op_class_0::SimdMult             0      0.00%     56.42% # Class of committed instruction
system.cpu0.commit.op_class_0::SimdMultAcc            0      0.00%     56.42% # Class of committed instruction
system.cpu0.commit.op_class_0::SimdShift            0      0.00%     56.42% # Class of committed instruction
system.cpu0.commit.op_class_0::SimdShiftAcc            0      0.00%     56.42% # Class of committed instruction
system.cpu0.commit.op_class_0::SimdDiv              0      0.00%     56.42% # Class of committed instruction
system.cpu0.commit.op_class_0::SimdSqrt             0      0.00%     56.42% # Class of committed instruction
system.cpu0.commit.op_class_0::SimdFloatAdd            0      0.00%     56.42% # Class of committed instruction
system.cpu0.commit.op_class_0::SimdFloatAlu            0      0.00%     56.42% # Class of committed instruction
system.cpu0.commit.op_class_0::SimdFloatCmp            0      0.00%     56.42% # Class of committed instruction
system.cpu0.commit.op_class_0::SimdFloatCvt            0      0.00%     56.42% # Class of committed instruction
system.cpu0.commit.op_class_0::SimdFloatDiv            0      0.00%     56.42% # Class of committed instruction
system.cpu0.commit.op_class_0::SimdFloatMisc            0      0.00%     56.42% # Class of committed instruction
system.cpu0.commit.op_class_0::SimdFloatMult            0      0.00%     56.42% # Class of committed instruction
system.cpu0.commit.op_class_0::SimdFloatMultAcc            0      0.00%     56.42% # Class of committed instruction
system.cpu0.commit.op_class_0::SimdFloatSqrt            0      0.00%     56.42% # Class of committed instruction
system.cpu0.commit.op_class_0::SimdReduceAdd            0      0.00%     56.42% # Class of committed instruction
system.cpu0.commit.op_class_0::SimdReduceAlu            0      0.00%     56.42% # Class of committed instruction
system.cpu0.commit.op_class_0::SimdReduceCmp            0      0.00%     56.42% # Class of committed instruction
system.cpu0.commit.op_class_0::SimdFloatReduceAdd            0      0.00%     56.42% # Class of committed instruction
system.cpu0.commit.op_class_0::SimdFloatReduceCmp            0      0.00%     56.42% # Class of committed instruction
system.cpu0.commit.op_class_0::SimdAes              0      0.00%     56.42% # Class of committed instruction
system.cpu0.commit.op_class_0::SimdAesMix            0      0.00%     56.42% # Class of committed instruction
system.cpu0.commit.op_class_0::SimdSha1Hash            0      0.00%     56.42% # Class of committed instruction
system.cpu0.commit.op_class_0::SimdSha1Hash2            0      0.00%     56.42% # Class of committed instruction
system.cpu0.commit.op_class_0::SimdSha256Hash            0      0.00%     56.42% # Class of committed instruction
system.cpu0.commit.op_class_0::SimdSha256Hash2            0      0.00%     56.42% # Class of committed instruction
system.cpu0.commit.op_class_0::SimdShaSigma2            0      0.00%     56.42% # Class of committed instruction
system.cpu0.commit.op_class_0::SimdShaSigma3            0      0.00%     56.42% # Class of committed instruction
system.cpu0.commit.op_class_0::SimdPredAlu            0      0.00%     56.42% # Class of committed instruction
system.cpu0.commit.op_class_0::MemRead      175270474     31.17%     87.58% # Class of committed instruction
system.cpu0.commit.op_class_0::MemWrite      69815385     12.42%    100.00% # Class of committed instruction
=======
final_tick                               533925583500                       # Number of ticks from beginning of simulation (restored from checkpoints and never reset)
host_inst_rate                                  61515                       # Simulator instruction rate (inst/s)
host_mem_usage                                 701396                       # Number of bytes of host memory used
host_op_rate                                    61719                       # Simulator op (including micro ops) rate (op/s)
host_seconds                                  9957.78                       # Real time elapsed on the host
host_tick_rate                               53618959                       # Simulator tick rate (ticks/s)
sim_freq                                 1000000000000                       # Frequency of simulated ticks
sim_insts                                   612547622                       # Number of instructions simulated
sim_ops                                     614585200                       # Number of ops (including micro ops) simulated
sim_seconds                                  0.533926                       # Number of seconds simulated
sim_ticks                                533925583500                       # Number of ticks simulated
system.cpu0.branchPred.BTBCorrect                   0                       # Number of correct BTB predictions (this stat may not work properly.
system.cpu0.branchPred.BTBHitPct            87.564070                       # BTB Hit Percentage
system.cpu0.branchPred.BTBHits               79455595                       # Number of BTB hits
system.cpu0.branchPred.BTBLookups            90739952                       # Number of BTB lookups
system.cpu0.branchPred.RASInCorrect                 0                       # Number of incorrect RAS predictions.
system.cpu0.branchPred.condIncorrect          9171221                       # Number of conditional branches incorrect
system.cpu0.branchPred.condPredicted        122440268                       # Number of conditional branches predicted
system.cpu0.branchPred.indirectHits          10821053                       # Number of indirect target hits.
system.cpu0.branchPred.indirectLookups       11027975                       # Number of indirect predictor lookups.
system.cpu0.branchPred.indirectMisses          206922                       # Number of indirect misses.
system.cpu0.branchPred.lookups              156799042                       # Number of BP lookups
system.cpu0.branchPred.usedRAS                      0                       # Number of times the RAS was used to get a target.
system.cpu0.branchPredindirectMispredicted      1060425                       # Number of mispredicted indirect branches.
system.cpu0.commit.amos                       1018202                       # Number of atomic instructions committed
system.cpu0.commit.branchMispredicts          6005348                       # The number of times a branch was mispredicted
system.cpu0.commit.branches                 143203688                       # Number of branches committed
system.cpu0.commit.bw_lim_events             16406998                       # number cycles where commit BW limit reached
system.cpu0.commit.commitNonSpecStalls        3058468                       # The number of times commit has been forced to stall to communicate backwards
system.cpu0.commit.commitSquashedInsts       36954248                       # The number of squashed insts skipped by commit
system.cpu0.commit.committedInsts           580284325                       # Number of instructions committed
system.cpu0.commit.committedOps             581303804                       # Number of ops (including micro ops) committed
system.cpu0.commit.committed_per_cycle::samples    976170518                       # Number of insts commited each cycle
system.cpu0.commit.committed_per_cycle::mean     0.595494                       # Number of insts commited each cycle
system.cpu0.commit.committed_per_cycle::stdev     1.374202                       # Number of insts commited each cycle
system.cpu0.commit.committed_per_cycle::underflows            0      0.00%      0.00% # Number of insts commited each cycle
system.cpu0.commit.committed_per_cycle::0    700219915     71.73%     71.73% # Number of insts commited each cycle
system.cpu0.commit.committed_per_cycle::1    162985919     16.70%     88.43% # Number of insts commited each cycle
system.cpu0.commit.committed_per_cycle::2     38853620      3.98%     92.41% # Number of insts commited each cycle
system.cpu0.commit.committed_per_cycle::3     36769055      3.77%     96.17% # Number of insts commited each cycle
system.cpu0.commit.committed_per_cycle::4     12243754      1.25%     97.43% # Number of insts commited each cycle
system.cpu0.commit.committed_per_cycle::5      4207416      0.43%     97.86% # Number of insts commited each cycle
system.cpu0.commit.committed_per_cycle::6      2351487      0.24%     98.10% # Number of insts commited each cycle
system.cpu0.commit.committed_per_cycle::7      2132354      0.22%     98.32% # Number of insts commited each cycle
system.cpu0.commit.committed_per_cycle::8     16406998      1.68%    100.00% # Number of insts commited each cycle
system.cpu0.commit.committed_per_cycle::overflows            0      0.00%    100.00% # Number of insts commited each cycle
system.cpu0.commit.committed_per_cycle::min_value            0                       # Number of insts commited each cycle
system.cpu0.commit.committed_per_cycle::max_value            8                       # Number of insts commited each cycle
system.cpu0.commit.committed_per_cycle::total    976170518                       # Number of insts commited each cycle
system.cpu0.commit.fp_insts                        50                       # Number of committed floating point instructions.
system.cpu0.commit.function_calls            11887361                       # Number of function calls committed.
system.cpu0.commit.int_insts                561282368                       # Number of committed integer instructions.
system.cpu0.commit.loads                    179949259                       # Number of loads committed
system.cpu0.commit.membars                    2037577                       # Number of memory barriers committed
system.cpu0.commit.op_class_0::No_OpClass      2037583      0.35%      0.35% # Class of committed instruction
system.cpu0.commit.op_class_0::IntAlu       322228719     55.43%     55.78% # Class of committed instruction
system.cpu0.commit.op_class_0::IntMult        4137068      0.71%     56.49% # Class of committed instruction
system.cpu0.commit.op_class_0::IntDiv         1017773      0.18%     56.67% # Class of committed instruction
system.cpu0.commit.op_class_0::FloatAdd             0      0.00%     56.67% # Class of committed instruction
system.cpu0.commit.op_class_0::FloatCmp             4      0.00%     56.67% # Class of committed instruction
system.cpu0.commit.op_class_0::FloatCvt            12      0.00%     56.67% # Class of committed instruction
system.cpu0.commit.op_class_0::FloatMult            0      0.00%     56.67% # Class of committed instruction
system.cpu0.commit.op_class_0::FloatMultAcc            0      0.00%     56.67% # Class of committed instruction
system.cpu0.commit.op_class_0::FloatDiv             2      0.00%     56.67% # Class of committed instruction
system.cpu0.commit.op_class_0::FloatMisc            4      0.00%     56.67% # Class of committed instruction
system.cpu0.commit.op_class_0::FloatSqrt            0      0.00%     56.67% # Class of committed instruction
system.cpu0.commit.op_class_0::SimdAdd              0      0.00%     56.67% # Class of committed instruction
system.cpu0.commit.op_class_0::SimdAddAcc            0      0.00%     56.67% # Class of committed instruction
system.cpu0.commit.op_class_0::SimdAlu              0      0.00%     56.67% # Class of committed instruction
system.cpu0.commit.op_class_0::SimdCmp              0      0.00%     56.67% # Class of committed instruction
system.cpu0.commit.op_class_0::SimdCvt              0      0.00%     56.67% # Class of committed instruction
system.cpu0.commit.op_class_0::SimdMisc             0      0.00%     56.67% # Class of committed instruction
system.cpu0.commit.op_class_0::SimdMult             0      0.00%     56.67% # Class of committed instruction
system.cpu0.commit.op_class_0::SimdMultAcc            0      0.00%     56.67% # Class of committed instruction
system.cpu0.commit.op_class_0::SimdShift            0      0.00%     56.67% # Class of committed instruction
system.cpu0.commit.op_class_0::SimdShiftAcc            0      0.00%     56.67% # Class of committed instruction
system.cpu0.commit.op_class_0::SimdDiv              0      0.00%     56.67% # Class of committed instruction
system.cpu0.commit.op_class_0::SimdSqrt             0      0.00%     56.67% # Class of committed instruction
system.cpu0.commit.op_class_0::SimdFloatAdd            0      0.00%     56.67% # Class of committed instruction
system.cpu0.commit.op_class_0::SimdFloatAlu            0      0.00%     56.67% # Class of committed instruction
system.cpu0.commit.op_class_0::SimdFloatCmp            0      0.00%     56.67% # Class of committed instruction
system.cpu0.commit.op_class_0::SimdFloatCvt            0      0.00%     56.67% # Class of committed instruction
system.cpu0.commit.op_class_0::SimdFloatDiv            0      0.00%     56.67% # Class of committed instruction
system.cpu0.commit.op_class_0::SimdFloatMisc            0      0.00%     56.67% # Class of committed instruction
system.cpu0.commit.op_class_0::SimdFloatMult            0      0.00%     56.67% # Class of committed instruction
system.cpu0.commit.op_class_0::SimdFloatMultAcc            0      0.00%     56.67% # Class of committed instruction
system.cpu0.commit.op_class_0::SimdFloatSqrt            0      0.00%     56.67% # Class of committed instruction
system.cpu0.commit.op_class_0::SimdReduceAdd            0      0.00%     56.67% # Class of committed instruction
system.cpu0.commit.op_class_0::SimdReduceAlu            0      0.00%     56.67% # Class of committed instruction
system.cpu0.commit.op_class_0::SimdReduceCmp            0      0.00%     56.67% # Class of committed instruction
system.cpu0.commit.op_class_0::SimdFloatReduceAdd            0      0.00%     56.67% # Class of committed instruction
system.cpu0.commit.op_class_0::SimdFloatReduceCmp            0      0.00%     56.67% # Class of committed instruction
system.cpu0.commit.op_class_0::SimdAes              0      0.00%     56.67% # Class of committed instruction
system.cpu0.commit.op_class_0::SimdAesMix            0      0.00%     56.67% # Class of committed instruction
system.cpu0.commit.op_class_0::SimdSha1Hash            0      0.00%     56.67% # Class of committed instruction
system.cpu0.commit.op_class_0::SimdSha1Hash2            0      0.00%     56.67% # Class of committed instruction
system.cpu0.commit.op_class_0::SimdSha256Hash            0      0.00%     56.67% # Class of committed instruction
system.cpu0.commit.op_class_0::SimdSha256Hash2            0      0.00%     56.67% # Class of committed instruction
system.cpu0.commit.op_class_0::SimdShaSigma2            0      0.00%     56.67% # Class of committed instruction
system.cpu0.commit.op_class_0::SimdShaSigma3            0      0.00%     56.67% # Class of committed instruction
system.cpu0.commit.op_class_0::SimdPredAlu            0      0.00%     56.67% # Class of committed instruction
system.cpu0.commit.op_class_0::MemRead      180967453     31.13%     87.80% # Class of committed instruction
system.cpu0.commit.op_class_0::MemWrite      70915158     12.20%    100.00% # Class of committed instruction
>>>>>>> 6be7a0502e78ebf80a09b838e3e9c0d652379c93
system.cpu0.commit.op_class_0::FloatMemRead            8      0.00%    100.00% # Class of committed instruction
system.cpu0.commit.op_class_0::FloatMemWrite           20      0.00%    100.00% # Class of committed instruction
system.cpu0.commit.op_class_0::IprAccess            0      0.00%    100.00% # Class of committed instruction
system.cpu0.commit.op_class_0::InstPrefetch            0      0.00%    100.00% # Class of committed instruction
<<<<<<< HEAD
system.cpu0.commit.op_class_0::total        562325100                       # Class of committed instruction
system.cpu0.commit.refs                     245085887                       # Number of memory references committed
system.cpu0.commit.swp_count                        0                       # Number of s/w prefetches committed
system.cpu0.commit.vec_insts                        0                       # Number of committed Vector instructions.
system.cpu0.committedInsts                  561814439                       # Number of Instructions Simulated
system.cpu0.committedOps                    562325100                       # Number of Ops (including micro ops) Simulated
system.cpu0.cpi                              1.730767                       # CPI: Cycles Per Instruction
system.cpu0.cpi_total                        1.730767                       # CPI: Total CPI of All Threads
system.cpu0.decode.BlockedCycles            119364643                       # Number of cycles decode is blocked
system.cpu0.decode.BranchMispred              1912967                       # Number of times decode detected a branch misprediction
system.cpu0.decode.BranchResolved            74718375                       # Number of times decode resolved a branch
system.cpu0.decode.DecodedInsts             627954671                       # Number of instructions handled by decode
system.cpu0.decode.IdleCycles               342172779                       # Number of cycles decode is idle
system.cpu0.decode.RunCycles                431665191                       # Number of cycles decode is running
system.cpu0.decode.SquashCycles               4606696                       # Number of cycles decode is squashing
system.cpu0.decode.SquashedInsts              8521485                       # Number of squashed instructions handled by decode
system.cpu0.decode.UnblockCycles              2651328                       # Number of cycles decode is unblocking
=======
system.cpu0.commit.op_class_0::total        581303804                       # Class of committed instruction
system.cpu0.commit.refs                     251882639                       # Number of memory references committed
system.cpu0.commit.swp_count                        0                       # Number of s/w prefetches committed
system.cpu0.commit.vec_insts                        0                       # Number of committed Vector instructions.
system.cpu0.committedInsts                  580284325                       # Number of Instructions Simulated
system.cpu0.committedOps                    581303804                       # Number of Ops (including micro ops) Simulated
system.cpu0.cpi                              1.819040                       # CPI: Cycles Per Instruction
system.cpu0.cpi_total                        1.819040                       # CPI: Total CPI of All Threads
system.cpu0.decode.BlockedCycles            195755417                       # Number of cycles decode is blocked
system.cpu0.decode.BranchMispred              3175743                       # Number of times decode detected a branch misprediction
system.cpu0.decode.BranchResolved            78290540                       # Number of times decode resolved a branch
system.cpu0.decode.DecodedInsts             633329677                       # Number of instructions handled by decode
system.cpu0.decode.IdleCycles               351488001                       # Number of cycles decode is idle
system.cpu0.decode.RunCycles                428711091                       # Number of cycles decode is running
system.cpu0.decode.SquashCycles               6010164                       # Number of cycles decode is squashing
system.cpu0.decode.SquashedInsts              8726479                       # Number of squashed instructions handled by decode
system.cpu0.decode.UnblockCycles              3295418                       # Number of cycles decode is unblocking
>>>>>>> 6be7a0502e78ebf80a09b838e3e9c0d652379c93
system.cpu0.dtb.accesses                            0                       # DTB accesses
system.cpu0.dtb.hits                                0                       # DTB hits
system.cpu0.dtb.misses                              0                       # DTB misses
system.cpu0.dtb.read_accesses                       0                       # DTB read accesses
system.cpu0.dtb.read_hits                           0                       # DTB read hits
system.cpu0.dtb.read_misses                         0                       # DTB read misses
system.cpu0.dtb.write_accesses                      0                       # DTB write accesses
system.cpu0.dtb.write_hits                          0                       # DTB write hits
system.cpu0.dtb.write_misses                        0                       # DTB write misses
<<<<<<< HEAD
system.cpu0.fetch.Branches                  155461264                       # Number of branches that fetch encountered
system.cpu0.fetch.CacheLines                100320309                       # Number of cache lines fetched
system.cpu0.fetch.Cycles                    557480553                       # Number of cycles fetch has run and was not squashing or blocked
system.cpu0.fetch.IcacheSquashes              2332115                       # Number of outstanding Icache misses that were squashed
system.cpu0.fetch.IcacheWaitRetryStallCycles          112                       # Number of stall cycles due to full MSHR
system.cpu0.fetch.Insts                     645889672                       # Number of instructions fetch has processed
system.cpu0.fetch.MiscStallCycles                  26                       # Number of cycles fetch has spent waiting on interrupts, or bad addresses, or out of MSHRs
system.cpu0.fetch.PendingTrapStallCycles           96                       # Number of stall cycles due to pending traps
system.cpu0.fetch.SquashCycles               13029780                       # Number of cycles fetch has spent squashing
system.cpu0.fetch.branchRate                 0.159879                       # Number of branch fetches per cycle
system.cpu0.fetch.icacheStallCycles         336464960                       # Number of cycles fetch is stalled on an Icache miss
system.cpu0.fetch.predictedBranches          88027069                       # Number of branches that fetch has predicted taken
system.cpu0.fetch.rate                       0.664243                       # Number of inst fetches per cycle
system.cpu0.fetch.rateDist::samples         900460637                       # Number of instructions fetched each cycle (Total)
system.cpu0.fetch.rateDist::mean             0.717856                       # Number of instructions fetched each cycle (Total)
system.cpu0.fetch.rateDist::stdev            0.936254                       # Number of instructions fetched each cycle (Total)
system.cpu0.fetch.rateDist::underflows              0      0.00%      0.00% # Number of instructions fetched each cycle (Total)
system.cpu0.fetch.rateDist::0               448888937     49.85%     49.85% # Number of instructions fetched each cycle (Total)
system.cpu0.fetch.rateDist::1               333387352     37.02%     86.88% # Number of instructions fetched each cycle (Total)
system.cpu0.fetch.rateDist::2                61146565      6.79%     93.67% # Number of instructions fetched each cycle (Total)
system.cpu0.fetch.rateDist::3                43548015      4.84%     98.50% # Number of instructions fetched each cycle (Total)
system.cpu0.fetch.rateDist::4                10581518      1.18%     99.68% # Number of instructions fetched each cycle (Total)
system.cpu0.fetch.rateDist::5                 1741984      0.19%     99.87% # Number of instructions fetched each cycle (Total)
system.cpu0.fetch.rateDist::6                  144751      0.02%     99.89% # Number of instructions fetched each cycle (Total)
system.cpu0.fetch.rateDist::7                     449      0.00%     99.89% # Number of instructions fetched each cycle (Total)
system.cpu0.fetch.rateDist::8                 1021066      0.11%    100.00% # Number of instructions fetched each cycle (Total)
system.cpu0.fetch.rateDist::overflows               0      0.00%    100.00% # Number of instructions fetched each cycle (Total)
system.cpu0.fetch.rateDist::min_value               0                       # Number of instructions fetched each cycle (Total)
system.cpu0.fetch.rateDist::max_value               8                       # Number of instructions fetched each cycle (Total)
system.cpu0.fetch.rateDist::total           900460637                       # Number of instructions fetched each cycle (Total)
system.cpu0.fp_regfile_reads                       44                       # number of floating regfile reads
system.cpu0.fp_regfile_writes                      23                       # number of floating regfile writes
system.cpu0.idleCycles                       71909366                       # Total number of cycles that the CPU has spent unscheduled due to idling
system.cpu0.iew.branchMispredicts             4713645                       # Number of branch mispredicts detected at execute
system.cpu0.iew.exec_branches               146388397                       # Number of branches executed
system.cpu0.iew.exec_nop                            0                       # number of nop insts executed
system.cpu0.iew.exec_rate                    0.628556                       # Inst execution rate
system.cpu0.iew.exec_refs                   274971233                       # number of memory reference insts executed
system.cpu0.iew.exec_stores                  77244447                       # Number of stores executed
system.cpu0.iew.exec_swp                            0                       # number of swp insts executed
system.cpu0.iew.iewBlockCycles               87222988                       # Number of cycles IEW is blocking
system.cpu0.iew.iewDispLoadInsts            197346179                       # Number of dispatched load instructions
system.cpu0.iew.iewDispNonSpecInsts            512649                       # Number of dispatched non-speculative instructions
system.cpu0.iew.iewDispSquashedInsts          2362395                       # Number of squashed instructions skipped by dispatch
system.cpu0.iew.iewDispStoreInsts            78292833                       # Number of dispatched store instructions
system.cpu0.iew.iewDispatchedInsts          616554849                       # Number of instructions dispatched to IQ
system.cpu0.iew.iewExecLoadInsts            197726786                       # Number of load instructions executed
system.cpu0.iew.iewExecSquashedInsts          3993365                       # Number of squashed instructions skipped in execute
system.cpu0.iew.iewExecutedInsts            611189344                       # Number of executed instructions
system.cpu0.iew.iewIQFullEvents                513242                       # Number of times the IQ has become full, causing a stall
system.cpu0.iew.iewIdleCycles                       0                       # Number of cycles IEW is idle
system.cpu0.iew.iewLSQFullEvents              3413162                       # Number of times the LSQ has become full, causing a stall
system.cpu0.iew.iewSquashCycles               4606696                       # Number of cycles IEW is squashing
system.cpu0.iew.iewUnblockCycles              4510923                       # Number of cycles IEW is unblocking
system.cpu0.iew.lsq.thread0.blockedLoads            0                       # Number of blocked loads due to partial load-store forwarding
system.cpu0.iew.lsq.thread0.cacheBlocked        98210                       # Number of times an access to memory failed due to the cache being blocked
system.cpu0.iew.lsq.thread0.forwLoads         9544426                       # Number of loads that had data forwarded from stores
system.cpu0.iew.lsq.thread0.ignoredResponses        34900                       # Number of memory responses ignored because the instruction is squashed
system.cpu0.iew.lsq.thread0.invAddrLoads            0                       # Number of loads ignored due to an invalid address
system.cpu0.iew.lsq.thread0.invAddrSwpfs            0                       # Number of software prefetches ignored due to an invalid address
system.cpu0.iew.lsq.thread0.memOrderViolation         5592                       # Number of memory ordering violations
system.cpu0.iew.lsq.thread0.rescheduledLoads      3520028                       # Number of loads that were rescheduled
system.cpu0.iew.lsq.thread0.squashedLoads     22585092                       # Number of loads squashed
system.cpu0.iew.lsq.thread0.squashedStores      7968033                       # Number of stores squashed
system.cpu0.iew.memOrderViolationEvents          5592                       # Number of memory order violations
system.cpu0.iew.predictedNotTakenIncorrect       829284                       # Number of branches that were predicted not taken incorrectly
system.cpu0.iew.predictedTakenIncorrect       3884361                       # Number of branches that were predicted taken incorrectly
system.cpu0.iew.wb_consumers                272525276                       # num instructions consuming a value
system.cpu0.iew.wb_count                    604477681                       # cumulative count of insts written-back
system.cpu0.iew.wb_fanout                    0.836088                       # average fanout of values written-back
system.cpu0.iew.wb_producers                227855218                       # num instructions producing a value
system.cpu0.iew.wb_rate                      0.621654                       # insts written-back per cycle
system.cpu0.iew.wb_sent                     604625689                       # cumulative count of insts sent to commit
system.cpu0.int_regfile_reads               743696449                       # number of integer regfile reads
system.cpu0.int_regfile_writes              386571166                       # number of integer regfile writes
system.cpu0.ipc                              0.577778                       # IPC: Instructions Per Cycle
system.cpu0.ipc_total                        0.577778                       # IPC: Total IPC of All Threads
system.cpu0.iq.FU_type_0::No_OpClass          1020970      0.17%      0.17% # Type of FU issued
system.cpu0.iq.FU_type_0::IntAlu            332260737     54.01%     54.18% # Type of FU issued
system.cpu0.iq.FU_type_0::IntMult             4213315      0.68%     54.86% # Type of FU issued
system.cpu0.iq.FU_type_0::IntDiv              1018062      0.17%     55.03% # Type of FU issued
system.cpu0.iq.FU_type_0::FloatAdd                  0      0.00%     55.03% # Type of FU issued
system.cpu0.iq.FU_type_0::FloatCmp                  4      0.00%     55.03% # Type of FU issued
system.cpu0.iq.FU_type_0::FloatCvt                 12      0.00%     55.03% # Type of FU issued
system.cpu0.iq.FU_type_0::FloatMult                 0      0.00%     55.03% # Type of FU issued
system.cpu0.iq.FU_type_0::FloatMultAcc              0      0.00%     55.03% # Type of FU issued
system.cpu0.iq.FU_type_0::FloatDiv                  2      0.00%     55.03% # Type of FU issued
system.cpu0.iq.FU_type_0::FloatMisc                 4      0.00%     55.03% # Type of FU issued
system.cpu0.iq.FU_type_0::FloatSqrt                 0      0.00%     55.03% # Type of FU issued
system.cpu0.iq.FU_type_0::SimdAdd                   0      0.00%     55.03% # Type of FU issued
system.cpu0.iq.FU_type_0::SimdAddAcc                0      0.00%     55.03% # Type of FU issued
system.cpu0.iq.FU_type_0::SimdAlu                   0      0.00%     55.03% # Type of FU issued
system.cpu0.iq.FU_type_0::SimdCmp                   0      0.00%     55.03% # Type of FU issued
system.cpu0.iq.FU_type_0::SimdCvt                   0      0.00%     55.03% # Type of FU issued
system.cpu0.iq.FU_type_0::SimdMisc                  0      0.00%     55.03% # Type of FU issued
system.cpu0.iq.FU_type_0::SimdMult                  0      0.00%     55.03% # Type of FU issued
system.cpu0.iq.FU_type_0::SimdMultAcc               0      0.00%     55.03% # Type of FU issued
system.cpu0.iq.FU_type_0::SimdShift                 0      0.00%     55.03% # Type of FU issued
system.cpu0.iq.FU_type_0::SimdShiftAcc              0      0.00%     55.03% # Type of FU issued
system.cpu0.iq.FU_type_0::SimdDiv                   0      0.00%     55.03% # Type of FU issued
system.cpu0.iq.FU_type_0::SimdSqrt                  0      0.00%     55.03% # Type of FU issued
system.cpu0.iq.FU_type_0::SimdFloatAdd              0      0.00%     55.03% # Type of FU issued
system.cpu0.iq.FU_type_0::SimdFloatAlu              0      0.00%     55.03% # Type of FU issued
system.cpu0.iq.FU_type_0::SimdFloatCmp              0      0.00%     55.03% # Type of FU issued
system.cpu0.iq.FU_type_0::SimdFloatCvt              0      0.00%     55.03% # Type of FU issued
system.cpu0.iq.FU_type_0::SimdFloatDiv              0      0.00%     55.03% # Type of FU issued
system.cpu0.iq.FU_type_0::SimdFloatMisc             0      0.00%     55.03% # Type of FU issued
system.cpu0.iq.FU_type_0::SimdFloatMult             0      0.00%     55.03% # Type of FU issued
system.cpu0.iq.FU_type_0::SimdFloatMultAcc            0      0.00%     55.03% # Type of FU issued
system.cpu0.iq.FU_type_0::SimdFloatSqrt             0      0.00%     55.03% # Type of FU issued
system.cpu0.iq.FU_type_0::SimdReduceAdd             0      0.00%     55.03% # Type of FU issued
system.cpu0.iq.FU_type_0::SimdReduceAlu             0      0.00%     55.03% # Type of FU issued
system.cpu0.iq.FU_type_0::SimdReduceCmp             0      0.00%     55.03% # Type of FU issued
system.cpu0.iq.FU_type_0::SimdFloatReduceAdd            0      0.00%     55.03% # Type of FU issued
system.cpu0.iq.FU_type_0::SimdFloatReduceCmp            0      0.00%     55.03% # Type of FU issued
system.cpu0.iq.FU_type_0::SimdAes                   0      0.00%     55.03% # Type of FU issued
system.cpu0.iq.FU_type_0::SimdAesMix                0      0.00%     55.03% # Type of FU issued
system.cpu0.iq.FU_type_0::SimdSha1Hash              0      0.00%     55.03% # Type of FU issued
system.cpu0.iq.FU_type_0::SimdSha1Hash2             0      0.00%     55.03% # Type of FU issued
system.cpu0.iq.FU_type_0::SimdSha256Hash            0      0.00%     55.03% # Type of FU issued
system.cpu0.iq.FU_type_0::SimdSha256Hash2            0      0.00%     55.03% # Type of FU issued
system.cpu0.iq.FU_type_0::SimdShaSigma2             0      0.00%     55.03% # Type of FU issued
system.cpu0.iq.FU_type_0::SimdShaSigma3             0      0.00%     55.03% # Type of FU issued
system.cpu0.iq.FU_type_0::SimdPredAlu               0      0.00%     55.03% # Type of FU issued
system.cpu0.iq.FU_type_0::MemRead           199551749     32.44%     87.46% # Type of FU issued
system.cpu0.iq.FU_type_0::MemWrite           77117825     12.54%    100.00% # Type of FU issued
=======
system.cpu0.fetch.Branches                  156799042                       # Number of branches that fetch encountered
system.cpu0.fetch.CacheLines                104324319                       # Number of cache lines fetched
system.cpu0.fetch.Cycles                    631594578                       # Number of cycles fetch has run and was not squashing or blocked
system.cpu0.fetch.IcacheSquashes              3002913                       # Number of outstanding Icache misses that were squashed
system.cpu0.fetch.IcacheWaitRetryStallCycles          156                       # Number of stall cycles due to full MSHR
system.cpu0.fetch.Insts                     649454929                       # Number of instructions fetch has processed
system.cpu0.fetch.MiscStallCycles                  29                       # Number of cycles fetch has spent waiting on interrupts, or bad addresses, or out of MSHRs
system.cpu0.fetch.PendingTrapStallCycles           91                       # Number of stall cycles due to pending traps
system.cpu0.fetch.SquashCycles               18352104                       # Number of cycles fetch has spent squashing
system.cpu0.fetch.branchRate                 0.148546                       # Number of branch fetches per cycle
system.cpu0.fetch.icacheStallCycles         344489185                       # Number of cycles fetch is stalled on an Icache miss
system.cpu0.fetch.predictedBranches          90276648                       # Number of branches that fetch has predicted taken
system.cpu0.fetch.rate                       0.615270                       # Number of inst fetches per cycle
system.cpu0.fetch.rateDist::samples         985260091                       # Number of instructions fetched each cycle (Total)
system.cpu0.fetch.rateDist::mean             0.660206                       # Number of instructions fetched each cycle (Total)
system.cpu0.fetch.rateDist::stdev            0.921785                       # Number of instructions fetched each cycle (Total)
system.cpu0.fetch.rateDist::underflows              0      0.00%      0.00% # Number of instructions fetched each cycle (Total)
system.cpu0.fetch.rateDist::0               532215106     54.02%     54.02% # Number of instructions fetched each cycle (Total)
system.cpu0.fetch.rateDist::1               333355729     33.83%     87.85% # Number of instructions fetched each cycle (Total)
system.cpu0.fetch.rateDist::2                62006916      6.29%     94.15% # Number of instructions fetched each cycle (Total)
system.cpu0.fetch.rateDist::3                44076802      4.47%     98.62% # Number of instructions fetched each cycle (Total)
system.cpu0.fetch.rateDist::4                10476561      1.06%     99.68% # Number of instructions fetched each cycle (Total)
system.cpu0.fetch.rateDist::5                 1847888      0.19%     99.87% # Number of instructions fetched each cycle (Total)
system.cpu0.fetch.rateDist::6                  259635      0.03%     99.90% # Number of instructions fetched each cycle (Total)
system.cpu0.fetch.rateDist::7                     402      0.00%     99.90% # Number of instructions fetched each cycle (Total)
system.cpu0.fetch.rateDist::8                 1021052      0.10%    100.00% # Number of instructions fetched each cycle (Total)
system.cpu0.fetch.rateDist::overflows               0      0.00%    100.00% # Number of instructions fetched each cycle (Total)
system.cpu0.fetch.rateDist::min_value               0                       # Number of instructions fetched each cycle (Total)
system.cpu0.fetch.rateDist::max_value               8                       # Number of instructions fetched each cycle (Total)
system.cpu0.fetch.rateDist::total           985260091                       # Number of instructions fetched each cycle (Total)
system.cpu0.fp_regfile_reads                       44                       # number of floating regfile reads
system.cpu0.fp_regfile_writes                      23                       # number of floating regfile writes
system.cpu0.idleCycles                       70300427                       # Total number of cycles that the CPU has spent unscheduled due to idling
system.cpu0.iew.branchMispredicts             6132729                       # Number of branch mispredicts detected at execute
system.cpu0.iew.exec_branches               147793098                       # Number of branches executed
system.cpu0.iew.exec_nop                            0                       # number of nop insts executed
system.cpu0.iew.exec_rate                    0.579216                       # Inst execution rate
system.cpu0.iew.exec_refs                   269538392                       # number of memory reference insts executed
system.cpu0.iew.exec_stores                  75133769                       # Number of stores executed
system.cpu0.iew.exec_swp                            0                       # number of swp insts executed
system.cpu0.iew.iewBlockCycles              152167399                       # Number of cycles IEW is blocking
system.cpu0.iew.iewDispLoadInsts            194379031                       # Number of dispatched load instructions
system.cpu0.iew.iewDispNonSpecInsts           1021073                       # Number of dispatched non-speculative instructions
system.cpu0.iew.iewDispSquashedInsts          3512756                       # Number of squashed instructions skipped by dispatch
system.cpu0.iew.iewDispStoreInsts            76077495                       # Number of dispatched store instructions
system.cpu0.iew.iewDispatchedInsts          618235714                       # Number of instructions dispatched to IQ
system.cpu0.iew.iewExecLoadInsts            194404623                       # Number of load instructions executed
system.cpu0.iew.iewExecSquashedInsts          4612350                       # Number of squashed instructions skipped in execute
system.cpu0.iew.iewExecutedInsts            611397931                       # Number of executed instructions
system.cpu0.iew.iewIQFullEvents                978842                       # Number of times the IQ has become full, causing a stall
system.cpu0.iew.iewIdleCycles                       0                       # Number of cycles IEW is idle
system.cpu0.iew.iewLSQFullEvents              4306723                       # Number of times the LSQ has become full, causing a stall
system.cpu0.iew.iewSquashCycles               6010164                       # Number of cycles IEW is squashing
system.cpu0.iew.iewUnblockCycles              6422999                       # Number of cycles IEW is unblocking
system.cpu0.iew.lsq.thread0.blockedLoads            0                       # Number of blocked loads due to partial load-store forwarding
system.cpu0.iew.lsq.thread0.cacheBlocked       113849                       # Number of times an access to memory failed due to the cache being blocked
system.cpu0.iew.lsq.thread0.forwLoads         9627428                       # Number of loads that had data forwarded from stores
system.cpu0.iew.lsq.thread0.ignoredResponses        57646                       # Number of memory responses ignored because the instruction is squashed
system.cpu0.iew.lsq.thread0.invAddrLoads            0                       # Number of loads ignored due to an invalid address
system.cpu0.iew.lsq.thread0.invAddrSwpfs            0                       # Number of software prefetches ignored due to an invalid address
system.cpu0.iew.lsq.thread0.memOrderViolation         5486                       # Number of memory ordering violations
system.cpu0.iew.lsq.thread0.rescheduledLoads      2447111                       # Number of loads that were rescheduled
system.cpu0.iew.lsq.thread0.squashedLoads     14429772                       # Number of loads squashed
system.cpu0.iew.lsq.thread0.squashedStores      4144115                       # Number of stores squashed
system.cpu0.iew.memOrderViolationEvents          5486                       # Number of memory order violations
system.cpu0.iew.predictedNotTakenIncorrect       884862                       # Number of branches that were predicted not taken incorrectly
system.cpu0.iew.predictedTakenIncorrect       5247867                       # Number of branches that were predicted taken incorrectly
system.cpu0.iew.wb_consumers                277205017                       # num instructions consuming a value
system.cpu0.iew.wb_count                    605147845                       # cumulative count of insts written-back
system.cpu0.iew.wb_fanout                    0.836532                       # average fanout of values written-back
system.cpu0.iew.wb_producers                231890738                       # num instructions producing a value
system.cpu0.iew.wb_rate                      0.573295                       # insts written-back per cycle
system.cpu0.iew.wb_sent                     605237420                       # cumulative count of insts sent to commit
system.cpu0.int_regfile_reads               746216266                       # number of integer regfile reads
system.cpu0.int_regfile_writes              386838935                       # number of integer regfile writes
system.cpu0.ipc                              0.549740                       # IPC: Instructions Per Cycle
system.cpu0.ipc_total                        0.549740                       # IPC: Total IPC of All Threads
system.cpu0.iq.FU_type_0::No_OpClass          2038445      0.33%      0.33% # Type of FU issued
system.cpu0.iq.FU_type_0::IntAlu            337299318     54.76%     55.09% # Type of FU issued
system.cpu0.iq.FU_type_0::IntMult             4213089      0.68%     55.77% # Type of FU issued
system.cpu0.iq.FU_type_0::IntDiv              1018050      0.17%     55.94% # Type of FU issued
system.cpu0.iq.FU_type_0::FloatAdd                  0      0.00%     55.94% # Type of FU issued
system.cpu0.iq.FU_type_0::FloatCmp                  4      0.00%     55.94% # Type of FU issued
system.cpu0.iq.FU_type_0::FloatCvt                 12      0.00%     55.94% # Type of FU issued
system.cpu0.iq.FU_type_0::FloatMult                 0      0.00%     55.94% # Type of FU issued
system.cpu0.iq.FU_type_0::FloatMultAcc              0      0.00%     55.94% # Type of FU issued
system.cpu0.iq.FU_type_0::FloatDiv                  2      0.00%     55.94% # Type of FU issued
system.cpu0.iq.FU_type_0::FloatMisc                 4      0.00%     55.94% # Type of FU issued
system.cpu0.iq.FU_type_0::FloatSqrt                 0      0.00%     55.94% # Type of FU issued
system.cpu0.iq.FU_type_0::SimdAdd                   0      0.00%     55.94% # Type of FU issued
system.cpu0.iq.FU_type_0::SimdAddAcc                0      0.00%     55.94% # Type of FU issued
system.cpu0.iq.FU_type_0::SimdAlu                   0      0.00%     55.94% # Type of FU issued
system.cpu0.iq.FU_type_0::SimdCmp                   0      0.00%     55.94% # Type of FU issued
system.cpu0.iq.FU_type_0::SimdCvt                   0      0.00%     55.94% # Type of FU issued
system.cpu0.iq.FU_type_0::SimdMisc                  0      0.00%     55.94% # Type of FU issued
system.cpu0.iq.FU_type_0::SimdMult                  0      0.00%     55.94% # Type of FU issued
system.cpu0.iq.FU_type_0::SimdMultAcc               0      0.00%     55.94% # Type of FU issued
system.cpu0.iq.FU_type_0::SimdShift                 0      0.00%     55.94% # Type of FU issued
system.cpu0.iq.FU_type_0::SimdShiftAcc              0      0.00%     55.94% # Type of FU issued
system.cpu0.iq.FU_type_0::SimdDiv                   0      0.00%     55.94% # Type of FU issued
system.cpu0.iq.FU_type_0::SimdSqrt                  0      0.00%     55.94% # Type of FU issued
system.cpu0.iq.FU_type_0::SimdFloatAdd              0      0.00%     55.94% # Type of FU issued
system.cpu0.iq.FU_type_0::SimdFloatAlu              0      0.00%     55.94% # Type of FU issued
system.cpu0.iq.FU_type_0::SimdFloatCmp              0      0.00%     55.94% # Type of FU issued
system.cpu0.iq.FU_type_0::SimdFloatCvt              0      0.00%     55.94% # Type of FU issued
system.cpu0.iq.FU_type_0::SimdFloatDiv              0      0.00%     55.94% # Type of FU issued
system.cpu0.iq.FU_type_0::SimdFloatMisc             0      0.00%     55.94% # Type of FU issued
system.cpu0.iq.FU_type_0::SimdFloatMult             0      0.00%     55.94% # Type of FU issued
system.cpu0.iq.FU_type_0::SimdFloatMultAcc            0      0.00%     55.94% # Type of FU issued
system.cpu0.iq.FU_type_0::SimdFloatSqrt             0      0.00%     55.94% # Type of FU issued
system.cpu0.iq.FU_type_0::SimdReduceAdd             0      0.00%     55.94% # Type of FU issued
system.cpu0.iq.FU_type_0::SimdReduceAlu             0      0.00%     55.94% # Type of FU issued
system.cpu0.iq.FU_type_0::SimdReduceCmp             0      0.00%     55.94% # Type of FU issued
system.cpu0.iq.FU_type_0::SimdFloatReduceAdd            0      0.00%     55.94% # Type of FU issued
system.cpu0.iq.FU_type_0::SimdFloatReduceCmp            0      0.00%     55.94% # Type of FU issued
system.cpu0.iq.FU_type_0::SimdAes                   0      0.00%     55.94% # Type of FU issued
system.cpu0.iq.FU_type_0::SimdAesMix                0      0.00%     55.94% # Type of FU issued
system.cpu0.iq.FU_type_0::SimdSha1Hash              0      0.00%     55.94% # Type of FU issued
system.cpu0.iq.FU_type_0::SimdSha1Hash2             0      0.00%     55.94% # Type of FU issued
system.cpu0.iq.FU_type_0::SimdSha256Hash            0      0.00%     55.94% # Type of FU issued
system.cpu0.iq.FU_type_0::SimdSha256Hash2            0      0.00%     55.94% # Type of FU issued
system.cpu0.iq.FU_type_0::SimdShaSigma2             0      0.00%     55.94% # Type of FU issued
system.cpu0.iq.FU_type_0::SimdShaSigma3             0      0.00%     55.94% # Type of FU issued
system.cpu0.iq.FU_type_0::SimdPredAlu               0      0.00%     55.94% # Type of FU issued
system.cpu0.iq.FU_type_0::MemRead           196996317     31.98%     87.91% # Type of FU issued
system.cpu0.iq.FU_type_0::MemWrite           74445011     12.09%    100.00% # Type of FU issued
>>>>>>> 6be7a0502e78ebf80a09b838e3e9c0d652379c93
system.cpu0.iq.FU_type_0::FloatMemRead              9      0.00%    100.00% # Type of FU issued
system.cpu0.iq.FU_type_0::FloatMemWrite            20      0.00%    100.00% # Type of FU issued
system.cpu0.iq.FU_type_0::IprAccess                 0      0.00%    100.00% # Type of FU issued
system.cpu0.iq.FU_type_0::InstPrefetch              0      0.00%    100.00% # Type of FU issued
<<<<<<< HEAD
system.cpu0.iq.FU_type_0::total             615182709                       # Type of FU issued
=======
system.cpu0.iq.FU_type_0::total             616010281                       # Type of FU issued
>>>>>>> 6be7a0502e78ebf80a09b838e3e9c0d652379c93
system.cpu0.iq.fp_alu_accesses                     55                       # Number of floating point alu accesses
system.cpu0.iq.fp_inst_queue_reads                106                       # Number of floating instruction queue reads
system.cpu0.iq.fp_inst_queue_wakeup_accesses           51                       # Number of floating instruction queue wakeup accesses
system.cpu0.iq.fp_inst_queue_writes                52                       # Number of floating instruction queue writes
<<<<<<< HEAD
system.cpu0.iq.fu_busy_cnt                     848831                       # FU busy when requested
system.cpu0.iq.fu_busy_rate                  0.001380                       # FU busy rate (busy events/executed inst)
system.cpu0.iq.fu_full::No_OpClass                  0      0.00%      0.00% # attempts to use FU when none available
system.cpu0.iq.fu_full::IntAlu                 164183     19.34%     19.34% # attempts to use FU when none available
system.cpu0.iq.fu_full::IntMult                     0      0.00%     19.34% # attempts to use FU when none available
system.cpu0.iq.fu_full::IntDiv                      0      0.00%     19.34% # attempts to use FU when none available
system.cpu0.iq.fu_full::FloatAdd                    0      0.00%     19.34% # attempts to use FU when none available
system.cpu0.iq.fu_full::FloatCmp                    0      0.00%     19.34% # attempts to use FU when none available
system.cpu0.iq.fu_full::FloatCvt                    0      0.00%     19.34% # attempts to use FU when none available
system.cpu0.iq.fu_full::FloatMult                   0      0.00%     19.34% # attempts to use FU when none available
system.cpu0.iq.fu_full::FloatMultAcc                0      0.00%     19.34% # attempts to use FU when none available
system.cpu0.iq.fu_full::FloatDiv                    0      0.00%     19.34% # attempts to use FU when none available
system.cpu0.iq.fu_full::FloatMisc                   0      0.00%     19.34% # attempts to use FU when none available
system.cpu0.iq.fu_full::FloatSqrt                   0      0.00%     19.34% # attempts to use FU when none available
system.cpu0.iq.fu_full::SimdAdd                     0      0.00%     19.34% # attempts to use FU when none available
system.cpu0.iq.fu_full::SimdAddAcc                  0      0.00%     19.34% # attempts to use FU when none available
system.cpu0.iq.fu_full::SimdAlu                     0      0.00%     19.34% # attempts to use FU when none available
system.cpu0.iq.fu_full::SimdCmp                     0      0.00%     19.34% # attempts to use FU when none available
system.cpu0.iq.fu_full::SimdCvt                     0      0.00%     19.34% # attempts to use FU when none available
system.cpu0.iq.fu_full::SimdMisc                    0      0.00%     19.34% # attempts to use FU when none available
system.cpu0.iq.fu_full::SimdMult                    0      0.00%     19.34% # attempts to use FU when none available
system.cpu0.iq.fu_full::SimdMultAcc                 0      0.00%     19.34% # attempts to use FU when none available
system.cpu0.iq.fu_full::SimdShift                   0      0.00%     19.34% # attempts to use FU when none available
system.cpu0.iq.fu_full::SimdShiftAcc                0      0.00%     19.34% # attempts to use FU when none available
system.cpu0.iq.fu_full::SimdDiv                     0      0.00%     19.34% # attempts to use FU when none available
system.cpu0.iq.fu_full::SimdSqrt                    0      0.00%     19.34% # attempts to use FU when none available
system.cpu0.iq.fu_full::SimdFloatAdd                0      0.00%     19.34% # attempts to use FU when none available
system.cpu0.iq.fu_full::SimdFloatAlu                0      0.00%     19.34% # attempts to use FU when none available
system.cpu0.iq.fu_full::SimdFloatCmp                0      0.00%     19.34% # attempts to use FU when none available
system.cpu0.iq.fu_full::SimdFloatCvt                0      0.00%     19.34% # attempts to use FU when none available
system.cpu0.iq.fu_full::SimdFloatDiv                0      0.00%     19.34% # attempts to use FU when none available
system.cpu0.iq.fu_full::SimdFloatMisc               0      0.00%     19.34% # attempts to use FU when none available
system.cpu0.iq.fu_full::SimdFloatMult               0      0.00%     19.34% # attempts to use FU when none available
system.cpu0.iq.fu_full::SimdFloatMultAcc            0      0.00%     19.34% # attempts to use FU when none available
system.cpu0.iq.fu_full::SimdFloatSqrt               0      0.00%     19.34% # attempts to use FU when none available
system.cpu0.iq.fu_full::SimdReduceAdd               0      0.00%     19.34% # attempts to use FU when none available
system.cpu0.iq.fu_full::SimdReduceAlu               0      0.00%     19.34% # attempts to use FU when none available
system.cpu0.iq.fu_full::SimdReduceCmp               0      0.00%     19.34% # attempts to use FU when none available
system.cpu0.iq.fu_full::SimdFloatReduceAdd            0      0.00%     19.34% # attempts to use FU when none available
system.cpu0.iq.fu_full::SimdFloatReduceCmp            0      0.00%     19.34% # attempts to use FU when none available
system.cpu0.iq.fu_full::SimdAes                     0      0.00%     19.34% # attempts to use FU when none available
system.cpu0.iq.fu_full::SimdAesMix                  0      0.00%     19.34% # attempts to use FU when none available
system.cpu0.iq.fu_full::SimdSha1Hash                0      0.00%     19.34% # attempts to use FU when none available
system.cpu0.iq.fu_full::SimdSha1Hash2               0      0.00%     19.34% # attempts to use FU when none available
system.cpu0.iq.fu_full::SimdSha256Hash              0      0.00%     19.34% # attempts to use FU when none available
system.cpu0.iq.fu_full::SimdSha256Hash2             0      0.00%     19.34% # attempts to use FU when none available
system.cpu0.iq.fu_full::SimdShaSigma2               0      0.00%     19.34% # attempts to use FU when none available
system.cpu0.iq.fu_full::SimdShaSigma3               0      0.00%     19.34% # attempts to use FU when none available
system.cpu0.iq.fu_full::SimdPredAlu                 0      0.00%     19.34% # attempts to use FU when none available
system.cpu0.iq.fu_full::MemRead                569566     67.10%     86.44% # attempts to use FU when none available
system.cpu0.iq.fu_full::MemWrite               115078     13.56%    100.00% # attempts to use FU when none available
=======
system.cpu0.iq.fu_busy_cnt                    1455320                       # FU busy when requested
system.cpu0.iq.fu_busy_rate                  0.002362                       # FU busy rate (busy events/executed inst)
system.cpu0.iq.fu_full::No_OpClass                  0      0.00%      0.00% # attempts to use FU when none available
system.cpu0.iq.fu_full::IntAlu                 268372     18.44%     18.44% # attempts to use FU when none available
system.cpu0.iq.fu_full::IntMult                    13      0.00%     18.44% # attempts to use FU when none available
system.cpu0.iq.fu_full::IntDiv                      0      0.00%     18.44% # attempts to use FU when none available
system.cpu0.iq.fu_full::FloatAdd                    0      0.00%     18.44% # attempts to use FU when none available
system.cpu0.iq.fu_full::FloatCmp                    0      0.00%     18.44% # attempts to use FU when none available
system.cpu0.iq.fu_full::FloatCvt                    0      0.00%     18.44% # attempts to use FU when none available
system.cpu0.iq.fu_full::FloatMult                   0      0.00%     18.44% # attempts to use FU when none available
system.cpu0.iq.fu_full::FloatMultAcc                0      0.00%     18.44% # attempts to use FU when none available
system.cpu0.iq.fu_full::FloatDiv                    0      0.00%     18.44% # attempts to use FU when none available
system.cpu0.iq.fu_full::FloatMisc                   0      0.00%     18.44% # attempts to use FU when none available
system.cpu0.iq.fu_full::FloatSqrt                   0      0.00%     18.44% # attempts to use FU when none available
system.cpu0.iq.fu_full::SimdAdd                     0      0.00%     18.44% # attempts to use FU when none available
system.cpu0.iq.fu_full::SimdAddAcc                  0      0.00%     18.44% # attempts to use FU when none available
system.cpu0.iq.fu_full::SimdAlu                     0      0.00%     18.44% # attempts to use FU when none available
system.cpu0.iq.fu_full::SimdCmp                     0      0.00%     18.44% # attempts to use FU when none available
system.cpu0.iq.fu_full::SimdCvt                     0      0.00%     18.44% # attempts to use FU when none available
system.cpu0.iq.fu_full::SimdMisc                    0      0.00%     18.44% # attempts to use FU when none available
system.cpu0.iq.fu_full::SimdMult                    0      0.00%     18.44% # attempts to use FU when none available
system.cpu0.iq.fu_full::SimdMultAcc                 0      0.00%     18.44% # attempts to use FU when none available
system.cpu0.iq.fu_full::SimdShift                   0      0.00%     18.44% # attempts to use FU when none available
system.cpu0.iq.fu_full::SimdShiftAcc                0      0.00%     18.44% # attempts to use FU when none available
system.cpu0.iq.fu_full::SimdDiv                     0      0.00%     18.44% # attempts to use FU when none available
system.cpu0.iq.fu_full::SimdSqrt                    0      0.00%     18.44% # attempts to use FU when none available
system.cpu0.iq.fu_full::SimdFloatAdd                0      0.00%     18.44% # attempts to use FU when none available
system.cpu0.iq.fu_full::SimdFloatAlu                0      0.00%     18.44% # attempts to use FU when none available
system.cpu0.iq.fu_full::SimdFloatCmp                0      0.00%     18.44% # attempts to use FU when none available
system.cpu0.iq.fu_full::SimdFloatCvt                0      0.00%     18.44% # attempts to use FU when none available
system.cpu0.iq.fu_full::SimdFloatDiv                0      0.00%     18.44% # attempts to use FU when none available
system.cpu0.iq.fu_full::SimdFloatMisc               0      0.00%     18.44% # attempts to use FU when none available
system.cpu0.iq.fu_full::SimdFloatMult               0      0.00%     18.44% # attempts to use FU when none available
system.cpu0.iq.fu_full::SimdFloatMultAcc            0      0.00%     18.44% # attempts to use FU when none available
system.cpu0.iq.fu_full::SimdFloatSqrt               0      0.00%     18.44% # attempts to use FU when none available
system.cpu0.iq.fu_full::SimdReduceAdd               0      0.00%     18.44% # attempts to use FU when none available
system.cpu0.iq.fu_full::SimdReduceAlu               0      0.00%     18.44% # attempts to use FU when none available
system.cpu0.iq.fu_full::SimdReduceCmp               0      0.00%     18.44% # attempts to use FU when none available
system.cpu0.iq.fu_full::SimdFloatReduceAdd            0      0.00%     18.44% # attempts to use FU when none available
system.cpu0.iq.fu_full::SimdFloatReduceCmp            0      0.00%     18.44% # attempts to use FU when none available
system.cpu0.iq.fu_full::SimdAes                     0      0.00%     18.44% # attempts to use FU when none available
system.cpu0.iq.fu_full::SimdAesMix                  0      0.00%     18.44% # attempts to use FU when none available
system.cpu0.iq.fu_full::SimdSha1Hash                0      0.00%     18.44% # attempts to use FU when none available
system.cpu0.iq.fu_full::SimdSha1Hash2               0      0.00%     18.44% # attempts to use FU when none available
system.cpu0.iq.fu_full::SimdSha256Hash              0      0.00%     18.44% # attempts to use FU when none available
system.cpu0.iq.fu_full::SimdSha256Hash2             0      0.00%     18.44% # attempts to use FU when none available
system.cpu0.iq.fu_full::SimdShaSigma2               0      0.00%     18.44% # attempts to use FU when none available
system.cpu0.iq.fu_full::SimdShaSigma3               0      0.00%     18.44% # attempts to use FU when none available
system.cpu0.iq.fu_full::SimdPredAlu                 0      0.00%     18.44% # attempts to use FU when none available
system.cpu0.iq.fu_full::MemRead               1008054     69.27%     87.71% # attempts to use FU when none available
system.cpu0.iq.fu_full::MemWrite               178877     12.29%    100.00% # attempts to use FU when none available
>>>>>>> 6be7a0502e78ebf80a09b838e3e9c0d652379c93
system.cpu0.iq.fu_full::FloatMemRead                0      0.00%    100.00% # attempts to use FU when none available
system.cpu0.iq.fu_full::FloatMemWrite               4      0.00%    100.00% # attempts to use FU when none available
system.cpu0.iq.fu_full::IprAccess                   0      0.00%    100.00% # attempts to use FU when none available
system.cpu0.iq.fu_full::InstPrefetch                0      0.00%    100.00% # attempts to use FU when none available
<<<<<<< HEAD
system.cpu0.iq.int_alu_accesses             615010515                       # Number of integer alu accesses
system.cpu0.iq.int_inst_queue_reads        2131746589                       # Number of integer instruction queue reads
system.cpu0.iq.int_inst_queue_wakeup_accesses    604477630                       # Number of integer instruction queue wakeup accesses
system.cpu0.iq.int_inst_queue_writes        670789332                       # Number of integer instruction queue writes
system.cpu0.iq.iqInstsAdded                 615022077                       # Number of instructions added to the IQ (excludes non-spec)
system.cpu0.iq.iqInstsIssued                615182709                       # Number of instructions issued
system.cpu0.iq.iqNonSpecInstsAdded            1532772                       # Number of non-speculative instructions added to the IQ
system.cpu0.iq.iqSquashedInstsExamined       54229746                       # Number of squashed instructions iterated over during squash; mainly for profiling
system.cpu0.iq.iqSquashedInstsIssued            71809                       # Number of squashed instructions issued
system.cpu0.iq.iqSquashedNonSpecRemoved           421                       # Number of squashed non-spec instructions that were removed
system.cpu0.iq.iqSquashedOperandsExamined     12348502                       # Number of squashed operands that are examined and possibly removed from graph
system.cpu0.iq.issued_per_cycle::samples    900460637                       # Number of insts issued each cycle
system.cpu0.iq.issued_per_cycle::mean        0.683187                       # Number of insts issued each cycle
system.cpu0.iq.issued_per_cycle::stdev       0.874523                       # Number of insts issued each cycle
system.cpu0.iq.issued_per_cycle::underflows            0      0.00%      0.00% # Number of insts issued each cycle
system.cpu0.iq.issued_per_cycle::0          474020921     52.64%     52.64% # Number of insts issued each cycle
system.cpu0.iq.issued_per_cycle::1          284287987     31.57%     84.21% # Number of insts issued each cycle
system.cpu0.iq.issued_per_cycle::2          104204727     11.57%     95.79% # Number of insts issued each cycle
system.cpu0.iq.issued_per_cycle::3           31117112      3.46%     99.24% # Number of insts issued each cycle
system.cpu0.iq.issued_per_cycle::4            5783444      0.64%     99.88% # Number of insts issued each cycle
system.cpu0.iq.issued_per_cycle::5             520852      0.06%     99.94% # Number of insts issued each cycle
system.cpu0.iq.issued_per_cycle::6             363067      0.04%     99.98% # Number of insts issued each cycle
system.cpu0.iq.issued_per_cycle::7              82722      0.01%     99.99% # Number of insts issued each cycle
system.cpu0.iq.issued_per_cycle::8              79805      0.01%    100.00% # Number of insts issued each cycle
system.cpu0.iq.issued_per_cycle::overflows            0      0.00%    100.00% # Number of insts issued each cycle
system.cpu0.iq.issued_per_cycle::min_value            0                       # Number of insts issued each cycle
system.cpu0.iq.issued_per_cycle::max_value            8                       # Number of insts issued each cycle
system.cpu0.iq.issued_per_cycle::total      900460637                       # Number of insts issued each cycle
system.cpu0.iq.rate                          0.632663                       # Inst issue rate
=======
system.cpu0.iq.int_alu_accesses             615427101                       # Number of integer alu accesses
system.cpu0.iq.int_inst_queue_reads        2218843237                       # Number of integer instruction queue reads
system.cpu0.iq.int_inst_queue_wakeup_accesses    605147794                       # Number of integer instruction queue wakeup accesses
system.cpu0.iq.int_inst_queue_writes        655172050                       # Number of integer instruction queue writes
system.cpu0.iq.iqInstsAdded                 615176909                       # Number of instructions added to the IQ (excludes non-spec)
system.cpu0.iq.iqInstsIssued                616010281                       # Number of instructions issued
system.cpu0.iq.iqNonSpecInstsAdded            3058805                       # Number of non-speculative instructions added to the IQ
system.cpu0.iq.iqSquashedInstsExamined       36931907                       # Number of squashed instructions iterated over during squash; mainly for profiling
system.cpu0.iq.iqSquashedInstsIssued           107370                       # Number of squashed instructions issued
system.cpu0.iq.iqSquashedNonSpecRemoved           337                       # Number of squashed non-spec instructions that were removed
system.cpu0.iq.iqSquashedOperandsExamined     13216299                       # Number of squashed operands that are examined and possibly removed from graph
system.cpu0.iq.issued_per_cycle::samples    985260091                       # Number of insts issued each cycle
system.cpu0.iq.issued_per_cycle::mean        0.625226                       # Number of insts issued each cycle
system.cpu0.iq.issued_per_cycle::stdev       0.860340                       # Number of insts issued each cycle
system.cpu0.iq.issued_per_cycle::underflows            0      0.00%      0.00% # Number of insts issued each cycle
system.cpu0.iq.issued_per_cycle::0          557660868     56.60%     56.60% # Number of insts issued each cycle
system.cpu0.iq.issued_per_cycle::1          287179809     29.15%     85.75% # Number of insts issued each cycle
system.cpu0.iq.issued_per_cycle::2          101384107     10.29%     96.04% # Number of insts issued each cycle
system.cpu0.iq.issued_per_cycle::3           32456903      3.29%     99.33% # Number of insts issued each cycle
system.cpu0.iq.issued_per_cycle::4            5236921      0.53%     99.86% # Number of insts issued each cycle
system.cpu0.iq.issued_per_cycle::5             627572      0.06%     99.93% # Number of insts issued each cycle
system.cpu0.iq.issued_per_cycle::6             500638      0.05%     99.98% # Number of insts issued each cycle
system.cpu0.iq.issued_per_cycle::7             104007      0.01%     99.99% # Number of insts issued each cycle
system.cpu0.iq.issued_per_cycle::8             109266      0.01%    100.00% # Number of insts issued each cycle
system.cpu0.iq.issued_per_cycle::overflows            0      0.00%    100.00% # Number of insts issued each cycle
system.cpu0.iq.issued_per_cycle::min_value            0                       # Number of insts issued each cycle
system.cpu0.iq.issued_per_cycle::max_value            8                       # Number of insts issued each cycle
system.cpu0.iq.issued_per_cycle::total      985260091                       # Number of insts issued each cycle
system.cpu0.iq.rate                          0.583586                       # Inst issue rate
>>>>>>> 6be7a0502e78ebf80a09b838e3e9c0d652379c93
system.cpu0.iq.vec_alu_accesses                     0                       # Number of vector alu accesses
system.cpu0.iq.vec_inst_queue_reads                 0                       # Number of vector instruction queue reads
system.cpu0.iq.vec_inst_queue_wakeup_accesses            0                       # Number of vector instruction queue wakeup accesses
system.cpu0.iq.vec_inst_queue_writes                0                       # Number of vector instruction queue writes
system.cpu0.itb.accesses                            0                       # DTB accesses
system.cpu0.itb.hits                                0                       # DTB hits
system.cpu0.itb.misses                              0                       # DTB misses
system.cpu0.itb.read_accesses                       0                       # DTB read accesses
system.cpu0.itb.read_hits                           0                       # DTB read hits
system.cpu0.itb.read_misses                         0                       # DTB read misses
system.cpu0.itb.write_accesses                      0                       # DTB write accesses
system.cpu0.itb.write_hits                          0                       # DTB write hits
system.cpu0.itb.write_misses                        0                       # DTB write misses
<<<<<<< HEAD
system.cpu0.memDep0.conflictingLoads          7535249                       # Number of conflicting loads.
system.cpu0.memDep0.conflictingStores         1510442                       # Number of conflicting stores.
system.cpu0.memDep0.insertedLoads           197346179                       # Number of loads inserted to the mem dependence unit.
system.cpu0.memDep0.insertedStores           78292833                       # Number of stores inserted to the mem dependence unit.
system.cpu0.misc_regfile_reads                   1037                       # number of misc regfile reads
system.cpu0.misc_regfile_writes                    22                       # number of misc regfile writes
[...]
system.cpu1.dcache.WriteReq_mshr_miss_rate::total     0.048108                       # mshr miss rate for WriteReq accesses
system.cpu1.dcache.WriteReq_avg_mshr_miss_latency::.cpu1.data 71519.283852                       # average WriteReq mshr miss latency
system.cpu1.dcache.WriteReq_avg_mshr_miss_latency::total 71519.283852                       # average WriteReq mshr miss latency
system.cpu1.dcache.LoadLockedReq_hits::.cpu1.data        47456                       # number of LoadLockedReq hits
system.cpu1.dcache.LoadLockedReq_hits::total        47456                       # number of LoadLockedReq hits
system.cpu1.dcache.LoadLockedReq_misses::.cpu1.data          917                       # number of LoadLockedReq misses
system.cpu1.dcache.LoadLockedReq_misses::total          917                       # number of LoadLockedReq misses
system.cpu1.dcache.LoadLockedReq_miss_latency::.cpu1.data     40413500                       # number of LoadLockedReq miss cycles
system.cpu1.dcache.LoadLockedReq_miss_latency::total     40413500                       # number of LoadLockedReq miss cycles
system.cpu1.dcache.LoadLockedReq_accesses::.cpu1.data        48373                       # number of LoadLockedReq accesses(hits+misses)
system.cpu1.dcache.LoadLockedReq_accesses::total        48373                       # number of LoadLockedReq accesses(hits+misses)
system.cpu1.dcache.LoadLockedReq_miss_rate::.cpu1.data     0.018957                       # miss rate for LoadLockedReq accesses
system.cpu1.dcache.LoadLockedReq_miss_rate::total     0.018957                       # miss rate for LoadLockedReq accesses
system.cpu1.dcache.LoadLockedReq_avg_miss_latency::.cpu1.data 44071.428571                       # average LoadLockedReq miss latency
system.cpu1.dcache.LoadLockedReq_avg_miss_latency::total 44071.428571                       # average LoadLockedReq miss latency
system.cpu1.dcache.LoadLockedReq_mshr_hits::.cpu1.data          236                       # number of LoadLockedReq MSHR hits
system.cpu1.dcache.LoadLockedReq_mshr_hits::total          236                       # number of LoadLockedReq MSHR hits
system.cpu1.dcache.LoadLockedReq_mshr_misses::.cpu1.data          681                       # number of LoadLockedReq MSHR misses
system.cpu1.dcache.LoadLockedReq_mshr_misses::total          681                       # number of LoadLockedReq MSHR misses
system.cpu1.dcache.LoadLockedReq_mshr_miss_latency::.cpu1.data     22931000                       # number of LoadLockedReq MSHR miss cycles
system.cpu1.dcache.LoadLockedReq_mshr_miss_latency::total     22931000                       # number of LoadLockedReq MSHR miss cycles
system.cpu1.dcache.LoadLockedReq_mshr_miss_rate::.cpu1.data     0.014078                       # mshr miss rate for LoadLockedReq accesses
system.cpu1.dcache.LoadLockedReq_mshr_miss_rate::total     0.014078                       # mshr miss rate for LoadLockedReq accesses
system.cpu1.dcache.LoadLockedReq_avg_mshr_miss_latency::.cpu1.data 33672.540382                       # average LoadLockedReq mshr miss latency
system.cpu1.dcache.LoadLockedReq_avg_mshr_miss_latency::total 33672.540382                       # average LoadLockedReq mshr miss latency
system.cpu1.dcache.StoreCondReq_hits::.cpu1.data        42822                       # number of StoreCondReq hits
system.cpu1.dcache.StoreCondReq_hits::total        42822                       # number of StoreCondReq hits
system.cpu1.dcache.StoreCondReq_misses::.cpu1.data         5198                       # number of StoreCondReq misses
system.cpu1.dcache.StoreCondReq_misses::total         5198                       # number of StoreCondReq misses
system.cpu1.dcache.StoreCondReq_miss_latency::.cpu1.data     32971000                       # number of StoreCondReq miss cycles
system.cpu1.dcache.StoreCondReq_miss_latency::total     32971000                       # number of StoreCondReq miss cycles
system.cpu1.dcache.StoreCondReq_accesses::.cpu1.data        48020                       # number of StoreCondReq accesses(hits+misses)
system.cpu1.dcache.StoreCondReq_accesses::total        48020                       # number of StoreCondReq accesses(hits+misses)
system.cpu1.dcache.StoreCondReq_miss_rate::.cpu1.data     0.108247                       # miss rate for StoreCondReq accesses
system.cpu1.dcache.StoreCondReq_miss_rate::total     0.108247                       # miss rate for StoreCondReq accesses
system.cpu1.dcache.StoreCondReq_avg_miss_latency::.cpu1.data  6343.016545                       # average StoreCondReq miss latency
system.cpu1.dcache.StoreCondReq_avg_miss_latency::total  6343.016545                       # average StoreCondReq miss latency
system.cpu1.dcache.StoreCondReq_mshr_misses::.cpu1.data         5103                       # number of StoreCondReq MSHR misses
system.cpu1.dcache.StoreCondReq_mshr_misses::total         5103                       # number of StoreCondReq MSHR misses
system.cpu1.dcache.StoreCondReq_mshr_miss_latency::.cpu1.data     27889000                       # number of StoreCondReq MSHR miss cycles
system.cpu1.dcache.StoreCondReq_mshr_miss_latency::total     27889000                       # number of StoreCondReq MSHR miss cycles
system.cpu1.dcache.StoreCondReq_mshr_miss_rate::.cpu1.data     0.106268                       # mshr miss rate for StoreCondReq accesses
system.cpu1.dcache.StoreCondReq_mshr_miss_rate::total     0.106268                       # mshr miss rate for StoreCondReq accesses
system.cpu1.dcache.StoreCondReq_avg_mshr_miss_latency::.cpu1.data  5465.216539                       # average StoreCondReq mshr miss latency
system.cpu1.dcache.StoreCondReq_avg_mshr_miss_latency::total  5465.216539                       # average StoreCondReq mshr miss latency
system.cpu1.dcache.StoreCondFailReq_miss_latency::.cpu1.data       601000                       # number of StoreCondFailReq miss cycles
system.cpu1.dcache.StoreCondFailReq_miss_latency::total       601000                       # number of StoreCondFailReq miss cycles
system.cpu1.dcache.StoreCondFailReq_avg_miss_latency::.cpu1.data          inf                       # average StoreCondFailReq miss latency
system.cpu1.dcache.StoreCondFailReq_avg_miss_latency::total          inf                       # average StoreCondFailReq miss latency
system.cpu1.dcache.StoreCondFailReq_mshr_miss_latency::.cpu1.data       580000                       # number of StoreCondFailReq MSHR miss cycles
system.cpu1.dcache.StoreCondFailReq_mshr_miss_latency::total       580000                       # number of StoreCondFailReq MSHR miss cycles
system.cpu1.dcache.StoreCondFailReq_avg_mshr_miss_latency::.cpu1.data          inf                       # average StoreCondFailReq mshr miss latency
system.cpu1.dcache.StoreCondFailReq_avg_mshr_miss_latency::total          inf                       # average StoreCondFailReq mshr miss latency
system.cpu1.dcache.SwapReq_hits::.cpu1.data         1644                       # number of SwapReq hits
system.cpu1.dcache.SwapReq_hits::total           1644                       # number of SwapReq hits
system.cpu1.dcache.SwapReq_misses::.cpu1.data         2786                       # number of SwapReq misses
system.cpu1.dcache.SwapReq_misses::total         2786                       # number of SwapReq misses
system.cpu1.dcache.SwapReq_miss_latency::.cpu1.data    123926500                       # number of SwapReq miss cycles
system.cpu1.dcache.SwapReq_miss_latency::total    123926500                       # number of SwapReq miss cycles
system.cpu1.dcache.SwapReq_accesses::.cpu1.data         4430                       # number of SwapReq accesses(hits+misses)
system.cpu1.dcache.SwapReq_accesses::total         4430                       # number of SwapReq accesses(hits+misses)
system.cpu1.dcache.SwapReq_miss_rate::.cpu1.data     0.628894                       # miss rate for SwapReq accesses
system.cpu1.dcache.SwapReq_miss_rate::total     0.628894                       # miss rate for SwapReq accesses
system.cpu1.dcache.SwapReq_avg_miss_latency::.cpu1.data 44481.873654                       # average SwapReq miss latency
system.cpu1.dcache.SwapReq_avg_miss_latency::total 44481.873654                       # average SwapReq miss latency
system.cpu1.dcache.SwapReq_mshr_misses::.cpu1.data         2786                       # number of SwapReq MSHR misses
system.cpu1.dcache.SwapReq_mshr_misses::total         2786                       # number of SwapReq MSHR misses
system.cpu1.dcache.SwapReq_mshr_miss_latency::.cpu1.data    121140500                       # number of SwapReq MSHR miss cycles
system.cpu1.dcache.SwapReq_mshr_miss_latency::total    121140500                       # number of SwapReq MSHR miss cycles
system.cpu1.dcache.SwapReq_mshr_miss_rate::.cpu1.data     0.628894                       # mshr miss rate for SwapReq accesses
system.cpu1.dcache.SwapReq_mshr_miss_rate::total     0.628894                       # mshr miss rate for SwapReq accesses
system.cpu1.dcache.SwapReq_avg_mshr_miss_latency::.cpu1.data 43481.873654                       # average SwapReq mshr miss latency
system.cpu1.dcache.SwapReq_avg_mshr_miss_latency::total 43481.873654                       # average SwapReq mshr miss latency
system.cpu1.dcache.tags.pwrStateResidencyTicks::UNDEFINED  70394543500                       # Cumulative time (in ticks) in various power states
system.cpu1.dcache.tags.tagsinuse           31.374234                       # Cycle average of tags in use
system.cpu1.dcache.tags.total_refs           18289134                       # Total number of references to valid blocks.
system.cpu1.dcache.tags.sampled_refs          1239591                       # Sample count of references to valid blocks.
system.cpu1.dcache.tags.avg_refs            14.754168                       # Average number of references to valid blocks.
system.cpu1.dcache.tags.warmup_cycle                0                       # Cycle when the warmup percentage was hit.
system.cpu1.dcache.tags.occ_blocks::.cpu1.data    31.374234                       # Average occupied blocks per requestor
system.cpu1.dcache.tags.occ_percent::.cpu1.data     0.980445                       # Average percentage of cache occupancy
system.cpu1.dcache.tags.occ_percent::total     0.980445                       # Average percentage of cache occupancy
system.cpu1.dcache.tags.occ_task_id_blocks::1024           28                       # Occupied blocks per task id
system.cpu1.dcache.tags.age_task_id_blocks_1024::1           28                       # Occupied blocks per task id
system.cpu1.dcache.tags.occ_task_id_percent::1024     0.875000                       # Percentage of cache occupancy per task id
system.cpu1.dcache.tags.tag_accesses         47099356                       # Number of tag accesses
system.cpu1.dcache.tags.data_accesses        47099356                       # Number of data accesses
system.cpu_clk_domain.clock                       500                       # Clock period in ticks
system.tol2bus.pwrStateResidencyTicks::UNDEFINED  70394543500                       # Cumulative time (in ticks) in various power states
system.tol2bus.trans_dist::ReadResp           2570965                       # Transaction distribution
system.tol2bus.trans_dist::WritebackDirty       822074                       # Transaction distribution
system.tol2bus.trans_dist::WritebackClean      2215098                       # Transaction distribution
system.tol2bus.trans_dist::CleanEvict         4549818                       # Transaction distribution
system.tol2bus.trans_dist::HardPFReq          2099731                       # Transaction distribution
system.tol2bus.trans_dist::HardPFResp               2                       # Transaction distribution
system.tol2bus.trans_dist::UpgradeReq           24912                       # Transaction distribution
system.tol2bus.trans_dist::SCUpgradeReq         10544                       # Transaction distribution
system.tol2bus.trans_dist::UpgradeResp          35456                       # Transaction distribution
system.tol2bus.trans_dist::SCUpgradeFailReq           55                       # Transaction distribution
system.tol2bus.trans_dist::UpgradeFailResp           55                       # Transaction distribution
system.tol2bus.trans_dist::ReadExReq           139668                       # Transaction distribution
system.tol2bus.trans_dist::ReadExResp          139668                       # Transaction distribution
system.tol2bus.trans_dist::ReadCleanReq        129721                       # Transaction distribution
system.tol2bus.trans_dist::ReadSharedReq      2441243                       # Transaction distribution
system.tol2bus.trans_dist::InvalidateReq          471                       # Transaction distribution
system.tol2bus.trans_dist::InvalidateResp          471                       # Transaction distribution
system.tol2bus.pkt_count_system.cpu0.icache.mem_side::system.l2.cpu_side       323286                       # Packet count per connected master and slave (bytes)
system.tol2bus.pkt_count_system.cpu0.dcache.mem_side::system.l2.cpu_side      4002412                       # Packet count per connected master and slave (bytes)
system.tol2bus.pkt_count_system.cpu1.icache.mem_side::system.l2.cpu_side        65871                       # Packet count per connected master and slave (bytes)
system.tol2bus.pkt_count_system.cpu1.dcache.mem_side::system.l2.cpu_side      3694681                       # Packet count per connected master and slave (bytes)
system.tol2bus.pkt_count::total               8086250                       # Packet count per connected master and slave (bytes)
system.tol2bus.pkt_size_system.cpu0.icache.mem_side::system.l2.cpu_side     13793408                       # Cumulative packet size per connected master and slave (bytes)
system.tol2bus.pkt_size_system.cpu0.dcache.mem_side::system.l2.cpu_side    168912640                       # Cumulative packet size per connected master and slave (bytes)
system.tol2bus.pkt_size_system.cpu1.icache.mem_side::system.l2.cpu_side      2810496                       # Cumulative packet size per connected master and slave (bytes)
system.tol2bus.pkt_size_system.cpu1.dcache.mem_side::system.l2.cpu_side    155830336                       # Cumulative packet size per connected master and slave (bytes)
system.tol2bus.pkt_size::total              341346880                       # Cumulative packet size per connected master and slave (bytes)
system.tol2bus.snoops                         7093704                       # Total snoops (count)
system.tol2bus.snoopTraffic                  26516416                       # Total snoop traffic (bytes)
system.tol2bus.snoop_fanout::samples          9765486                       # Request fanout histogram
system.tol2bus.snoop_fanout::mean            0.241857                       # Request fanout histogram
system.tol2bus.snoop_fanout::stdev           0.445725                       # Request fanout histogram
system.tol2bus.snoop_fanout::underflows             0      0.00%      0.00% # Request fanout histogram
system.tol2bus.snoop_fanout::0                7478382     76.58%     76.58% # Request fanout histogram
system.tol2bus.snoop_fanout::1                2212356     22.65%     99.23% # Request fanout histogram
system.tol2bus.snoop_fanout::2                  74748      0.77%    100.00% # Request fanout histogram
system.tol2bus.snoop_fanout::3                      0      0.00%    100.00% # Request fanout histogram
system.tol2bus.snoop_fanout::4                      0      0.00%    100.00% # Request fanout histogram
>>>>>>> 6be7a0502e78ebf80a09b838e3e9c0d652379c93
system.tol2bus.snoop_fanout::5                      0      0.00%    100.00% # Request fanout histogram
system.tol2bus.snoop_fanout::6                      0      0.00%    100.00% # Request fanout histogram
system.tol2bus.snoop_fanout::7                      0      0.00%    100.00% # Request fanout histogram
system.tol2bus.snoop_fanout::8                      0      0.00%    100.00% # Request fanout histogram
system.tol2bus.snoop_fanout::overflows              0      0.00%    100.00% # Request fanout histogram
system.tol2bus.snoop_fanout::min_value              0                       # Request fanout histogram
<<<<<<< HEAD
system.tol2bus.snoop_fanout::max_value              4                       # Request fanout histogram
system.tol2bus.snoop_fanout::total            7521268                       # Request fanout histogram
system.tol2bus.reqLayer0.occupancy         5489792592                       # Layer occupancy (ticks)
system.tol2bus.reqLayer0.utilization             12.9                       # Layer utilization (%)
system.tol2bus.respLayer5.occupancy         954428515                       # Layer occupancy (ticks)
system.tol2bus.respLayer5.utilization             2.2                       # Layer utilization (%)
system.tol2bus.respLayer4.occupancy          37560557                       # Layer occupancy (ticks)
system.tol2bus.respLayer4.utilization             0.1                       # Layer utilization (%)
system.tol2bus.respLayer7.occupancy         937213214                       # Layer occupancy (ticks)
system.tol2bus.respLayer7.utilization             2.2                       # Layer utilization (%)
system.tol2bus.respLayer6.occupancy          36903388                       # Layer occupancy (ticks)
system.tol2bus.respLayer6.utilization             0.1                       # Layer utilization (%)
system.tol2bus.respLayer1.occupancy        1062301763                       # Layer occupancy (ticks)
system.tol2bus.respLayer1.utilization             2.5                       # Layer utilization (%)
system.tol2bus.respLayer0.occupancy         163844813                       # Layer occupancy (ticks)
system.tol2bus.respLayer0.utilization             0.4                       # Layer utilization (%)
system.tol2bus.respLayer3.occupancy         968232495                       # Layer occupancy (ticks)
system.tol2bus.respLayer3.utilization             2.3                       # Layer utilization (%)
system.tol2bus.respLayer2.occupancy          37318683                       # Layer occupancy (ticks)
system.tol2bus.respLayer2.utilization             0.1                       # Layer utilization (%)
system.tol2bus.snoopLayer0.occupancy             7510                       # Layer occupancy (ticks)
=======
system.tol2bus.snoop_fanout::max_value              2                       # Request fanout histogram
system.tol2bus.snoop_fanout::total            9765486                       # Request fanout histogram
system.tol2bus.reqLayer0.occupancy         5377637175                       # Layer occupancy (ticks)
system.tol2bus.reqLayer0.utilization              7.6                       # Layer utilization (%)
system.tol2bus.respLayer1.occupancy        2024025491                       # Layer occupancy (ticks)
system.tol2bus.respLayer1.utilization             2.9                       # Layer utilization (%)
system.tol2bus.respLayer0.occupancy         161744306                       # Layer occupancy (ticks)
system.tol2bus.respLayer0.utilization             0.2                       # Layer utilization (%)
system.tol2bus.respLayer3.occupancy        1870642666                       # Layer occupancy (ticks)
system.tol2bus.respLayer3.utilization             2.7                       # Layer utilization (%)
system.tol2bus.respLayer2.occupancy          33102166                       # Layer occupancy (ticks)
system.tol2bus.respLayer2.utilization             0.0                       # Layer utilization (%)
system.tol2bus.snoopLayer0.occupancy             3000                       # Layer occupancy (ticks)
>>>>>>> 6be7a0502e78ebf80a09b838e3e9c0d652379c93
system.tol2bus.snoopLayer0.utilization            0.0                       # Layer utilization (%)

---------- End Simulation Statistics   ----------
