gem5 Simulator System.  http://gem5.org
gem5 is copyrighted software; use the --copyright option for details.

gem5 compiled Mar 27 2020 00:28:59
gem5 started Apr 23 2020 23:52:26
gem5 executing on muhammet, pid 23660
command line: /home/muhammet/Desktop/gem5/build/RISCV/gem5.fast -re --outdir=/home/muhammet/Desktop/gem5/results/bfs/dblp.el/replacement_BRRIPRP --stdout-file=output.txt --stderr-file=error.txt /home/muhammet/Desktop/gem5/configs/example/my_se.py -c /home/muhammet/Desktop/gem5/gapbs/bfs -o '-f /home/muhammet/Desktop/gem5/gapbs/test/graphs/dblp.el' --caches --l1d_size=2kB --l1i_size=2kB --cpu-type=DerivO3CPU -n 4 --mem-size=512MB --l2cache --l2_size=4kB --l2-replacement-policy=BRRIPRP --l1i_mshrs=4 --l1d_mshrs=4 --l2_mshrs=20 --l1i_write_buffers=8 --l1d_write_buffers=8 --l2_write_buffers=8

Global frequency set at 1000000000000 ticks per second
**** REAL SIMULATION ****
Read Time:           0.88496
Build Time:          0.12083
Graph has 425957 nodes and 1049866 directed edges for degree: 2
Source:                85136
    i                0.00150
   td          4     0.00002
   td         36     0.00002
   td         85     0.00002
   td        111     0.00002
   td        182     0.00003
   td        235     0.00003
   td        382     0.00004
   td        442     0.00004
   td        580     0.00005
   td        572     0.00006
   td        380     0.00004
   td        256     0.00003
   td        116     0.00003
   td         56     0.00002
   td         53     0.00002
   td         41     0.00002
   td         12     0.00002
   td          5     0.00001
   td          1     0.00001
   td          1     0.00001
   td          4     0.00001
   td          0     0.00001
Trial Time:          0.00339
Source:               174172
    i                0.00149
   td          1     0.00002
   td          0     0.00001
Trial Time:          0.00241
Source:               394951
    i                0.00149
   td          1     0.00001
   td          0     0.00001
Trial Time:          0.00242
Source:               101549
    i                0.00147
   td          8     0.00002
   td          4     0.00001
   td          0     0.00001
Trial Time:          0.00243
Source:               362397
    i                0.00147
   td          1     0.00001
   td          0     0.00001
Trial Time:          0.00240
Source:                74869
    i                0.00149
   td          2     0.00002
   td         64     0.00002
   td        293     0.00003
   td        794     0.00005
   td       1779     0.00012
   td       3336     0.00020
   td       5365     0.00034
   td       6798     0.00041
   td       6435     0.00044
   td       4602     0.00034
   td       2752     0.00023
   td       1503     0.00013
   td        771     0.00009
   td        344     0.00005
   td        163     0.00003
   td        116     0.00002
   td         34     0.00002
   td         21     0.00002
   td          4     0.00001
   td          9     0.00001
   td          2     0.00001
   td          4     0.00001
   td          1     0.00001
   td          0     0.00001
Trial Time:          0.00547
Source:               330191
    i                0.00148
   td          1     0.00002
   td          1     0.00001
   td          0     0.00001
Trial Time:          0.00244
Source:               133608
    i                0.00149
   td          1     0.00002
   td          0     0.00001
Trial Time:          0.00242
Source:               170715
    i                0.00148
   td          1     0.00002
   td          0     0.00001
Trial Time:          0.00241
Source:                44340
    i                0.00149
   td          2     0.00002
   td         15     0.00002
   td         71     0.00002
   td        130     0.00002
   td        312     0.00004
   td        592     0.00005
   td       1253     0.00010
   td       2241     0.00014
   td       3594     0.00021
   td       3730     0.00027
   td       2896     0.00022
   td       2393     0.00021
   td       2067     0.00016
   td       1594     0.00014
   td       1225     0.00010
   td        819     0.00008
   td        549     0.00006
   td        251     0.00004
   td         94     0.00003
   td         48     0.00002
   td         23     0.00002
   td         15     0.00001
   td         18     0.00001
   td          4     0.00001
   td          0     0.00001
Trial Time:          0.00487
Source:               221784
    i                0.00149
   td          3     0.00002
   td          0     0.00001
Trial Time:          0.00242
Source:                88856
    i                0.00148
   td          7     0.00002
   td         22     0.00002
   td         29     0.00002
   td         57     0.00002
   td         76     0.00002
   td         79     0.00002
   td         72     0.00002
   td         61     0.00002
   td         31     0.00002
   td         10     0.00001
   td          0     0.00001
Trial Time:          0.00275
Source:               388999
    i                0.00148
   td          4     0.00002
   td          0     0.00001
Trial Time:          0.00240
Source:                19623
    i                0.00150
   td          1     0.00002
   td          0     0.00001
Trial Time:          0.00242
Source:               338711
    i                0.00149
   td          2     0.00001
   td          0     0.00001
Trial Time:          0.00241
Source:               379423
    i                0.00149
   td          2     0.00001
   td          0     0.00001
Trial Time:          0.00241
Average Time:        0.00284
Exiting @ tick 1100312574000 because exiting with last active thread context
