
---------- Begin Simulation Statistics ----------
<<<<<<< HEAD
final_tick                               1839832386500                       # Number of ticks from beginning of simulation (restored from checkpoints and never reset)
host_inst_rate                                 104437                       # Simulator instruction rate (inst/s)
host_mem_usage                                 738824                       # Number of bytes of host memory used
host_op_rate                                   104774                       # Simulator op (including micro ops) rate (op/s)
host_seconds                                 22584.62                       # Real time elapsed on the host
host_tick_rate                               81463942                       # Simulator tick rate (ticks/s)
sim_freq                                 1000000000000                       # Frequency of simulated ticks
sim_insts                                  2358681497                       # Number of instructions simulated
sim_ops                                    2366291653                       # Number of ops (including micro ops) simulated
sim_seconds                                  1.839832                       # Number of seconds simulated
sim_ticks                                1839832386500                       # Number of ticks simulated
system.cpu0.branchPred.BTBCorrect                   0                       # Number of correct BTB predictions (this stat may not work properly.
system.cpu0.branchPred.BTBHitPct            86.935362                       # BTB Hit Percentage
system.cpu0.branchPred.BTBHits              288861065                       # Number of BTB hits
system.cpu0.branchPred.BTBLookups           332271078                       # Number of BTB lookups
system.cpu0.branchPred.RASInCorrect                 0                       # Number of incorrect RAS predictions.
system.cpu0.branchPred.condIncorrect         24977444                       # Number of conditional branches incorrect
system.cpu0.branchPred.condPredicted        450804038                       # Number of conditional branches predicted
system.cpu0.branchPred.indirectHits          42773787                       # Number of indirect target hits.
system.cpu0.branchPred.indirectLookups       43096661                       # Number of indirect predictor lookups.
system.cpu0.branchPred.indirectMisses          322874                       # Number of indirect misses.
system.cpu0.branchPred.lookups              580681774                       # Number of BP lookups
system.cpu0.branchPred.usedRAS                      0                       # Number of times the RAS was used to get a target.
system.cpu0.branchPredindirectMispredicted      3902473                       # Number of mispredicted indirect branches.
system.cpu0.commit.amos                       1901251                       # Number of atomic instructions committed
system.cpu0.commit.branchMispredicts         16332556                       # The number of times a branch was mispredicted
system.cpu0.commit.branches                 535062549                       # Number of branches committed
system.cpu0.commit.bw_lim_events             66012418                       # number cycles where commit BW limit reached
system.cpu0.commit.commitNonSpecStalls        5717983                       # The number of times commit has been forced to stall to communicate backwards
system.cpu0.commit.commitSquashedInsts      160814937                       # The number of squashed insts skipped by commit
system.cpu0.commit.committedInsts          2142665343                       # Number of instructions committed
system.cpu0.commit.committedOps            2144571877                       # Number of ops (including micro ops) committed
system.cpu0.commit.committed_per_cycle::samples   3373738456                       # Number of insts commited each cycle
system.cpu0.commit.committed_per_cycle::mean     0.635666                       # Number of insts commited each cycle
system.cpu0.commit.committed_per_cycle::stdev     1.426736                       # Number of insts commited each cycle
system.cpu0.commit.committed_per_cycle::underflows            0      0.00%      0.00% # Number of insts commited each cycle
system.cpu0.commit.committed_per_cycle::0   2363342966     70.05%     70.05% # Number of insts commited each cycle
system.cpu0.commit.committed_per_cycle::1    599292110     17.76%     87.81% # Number of insts commited each cycle
system.cpu0.commit.committed_per_cycle::2    137239609      4.07%     91.88% # Number of insts commited each cycle
system.cpu0.commit.committed_per_cycle::3    136845727      4.06%     95.94% # Number of insts commited each cycle
system.cpu0.commit.committed_per_cycle::4     43001763      1.27%     97.21% # Number of insts commited each cycle
system.cpu0.commit.committed_per_cycle::5     16084924      0.48%     97.69% # Number of insts commited each cycle
system.cpu0.commit.committed_per_cycle::6      3700221      0.11%     97.80% # Number of insts commited each cycle
system.cpu0.commit.committed_per_cycle::7      8218718      0.24%     98.04% # Number of insts commited each cycle
system.cpu0.commit.committed_per_cycle::8     66012418      1.96%    100.00% # Number of insts commited each cycle
system.cpu0.commit.committed_per_cycle::overflows            0      0.00%    100.00% # Number of insts commited each cycle
system.cpu0.commit.committed_per_cycle::min_value            0                       # Number of insts commited each cycle
system.cpu0.commit.committed_per_cycle::max_value            8                       # Number of insts commited each cycle
system.cpu0.commit.committed_per_cycle::total   3373738456                       # Number of insts commited each cycle
system.cpu0.commit.fp_insts                        50                       # Number of committed floating point instructions.
system.cpu0.commit.function_calls            43222527                       # Number of function calls committed.
system.cpu0.commit.int_insts               2072124310                       # Number of committed integer instructions.
system.cpu0.commit.loads                    668909108                       # Number of loads committed
system.cpu0.commit.membars                    3807639                       # Number of memory barriers committed
system.cpu0.commit.op_class_0::No_OpClass      3807645      0.18%      0.18% # Class of committed instruction
system.cpu0.commit.op_class_0::IntAlu      1188282167     55.41%     55.59% # Class of committed instruction
system.cpu0.commit.op_class_0::IntMult       18318163      0.85%     56.44% # Class of committed instruction
system.cpu0.commit.op_class_0::IntDiv         3801411      0.18%     56.62% # Class of committed instruction
system.cpu0.commit.op_class_0::FloatAdd             0      0.00%     56.62% # Class of committed instruction
system.cpu0.commit.op_class_0::FloatCmp             4      0.00%     56.62% # Class of committed instruction
system.cpu0.commit.op_class_0::FloatCvt            12      0.00%     56.62% # Class of committed instruction
system.cpu0.commit.op_class_0::FloatMult            0      0.00%     56.62% # Class of committed instruction
system.cpu0.commit.op_class_0::FloatMultAcc            0      0.00%     56.62% # Class of committed instruction
system.cpu0.commit.op_class_0::FloatDiv             2      0.00%     56.62% # Class of committed instruction
system.cpu0.commit.op_class_0::FloatMisc            4      0.00%     56.62% # Class of committed instruction
system.cpu0.commit.op_class_0::FloatSqrt            0      0.00%     56.62% # Class of committed instruction
system.cpu0.commit.op_class_0::SimdAdd              0      0.00%     56.62% # Class of committed instruction
system.cpu0.commit.op_class_0::SimdAddAcc            0      0.00%     56.62% # Class of committed instruction
system.cpu0.commit.op_class_0::SimdAlu              0      0.00%     56.62% # Class of committed instruction
system.cpu0.commit.op_class_0::SimdCmp              0      0.00%     56.62% # Class of committed instruction
system.cpu0.commit.op_class_0::SimdCvt              0      0.00%     56.62% # Class of committed instruction
system.cpu0.commit.op_class_0::SimdMisc             0      0.00%     56.62% # Class of committed instruction
system.cpu0.commit.op_class_0::SimdMult             0      0.00%     56.62% # Class of committed instruction
system.cpu0.commit.op_class_0::SimdMultAcc            0      0.00%     56.62% # Class of committed instruction
system.cpu0.commit.op_class_0::SimdShift            0      0.00%     56.62% # Class of committed instruction
system.cpu0.commit.op_class_0::SimdShiftAcc            0      0.00%     56.62% # Class of committed instruction
system.cpu0.commit.op_class_0::SimdDiv              0      0.00%     56.62% # Class of committed instruction
system.cpu0.commit.op_class_0::SimdSqrt             0      0.00%     56.62% # Class of committed instruction
system.cpu0.commit.op_class_0::SimdFloatAdd            0      0.00%     56.62% # Class of committed instruction
system.cpu0.commit.op_class_0::SimdFloatAlu            0      0.00%     56.62% # Class of committed instruction
system.cpu0.commit.op_class_0::SimdFloatCmp            0      0.00%     56.62% # Class of committed instruction
system.cpu0.commit.op_class_0::SimdFloatCvt            0      0.00%     56.62% # Class of committed instruction
system.cpu0.commit.op_class_0::SimdFloatDiv            0      0.00%     56.62% # Class of committed instruction
system.cpu0.commit.op_class_0::SimdFloatMisc            0      0.00%     56.62% # Class of committed instruction
system.cpu0.commit.op_class_0::SimdFloatMult            0      0.00%     56.62% # Class of committed instruction
system.cpu0.commit.op_class_0::SimdFloatMultAcc            0      0.00%     56.62% # Class of committed instruction
system.cpu0.commit.op_class_0::SimdFloatSqrt            0      0.00%     56.62% # Class of committed instruction
system.cpu0.commit.op_class_0::SimdReduceAdd            0      0.00%     56.62% # Class of committed instruction
system.cpu0.commit.op_class_0::SimdReduceAlu            0      0.00%     56.62% # Class of committed instruction
system.cpu0.commit.op_class_0::SimdReduceCmp            0      0.00%     56.62% # Class of committed instruction
system.cpu0.commit.op_class_0::SimdFloatReduceAdd            0      0.00%     56.62% # Class of committed instruction
system.cpu0.commit.op_class_0::SimdFloatReduceCmp            0      0.00%     56.62% # Class of committed instruction
system.cpu0.commit.op_class_0::SimdAes              0      0.00%     56.62% # Class of committed instruction
system.cpu0.commit.op_class_0::SimdAesMix            0      0.00%     56.62% # Class of committed instruction
system.cpu0.commit.op_class_0::SimdSha1Hash            0      0.00%     56.62% # Class of committed instruction
system.cpu0.commit.op_class_0::SimdSha1Hash2            0      0.00%     56.62% # Class of committed instruction
system.cpu0.commit.op_class_0::SimdSha256Hash            0      0.00%     56.62% # Class of committed instruction
system.cpu0.commit.op_class_0::SimdSha256Hash2            0      0.00%     56.62% # Class of committed instruction
system.cpu0.commit.op_class_0::SimdShaSigma2            0      0.00%     56.62% # Class of committed instruction
system.cpu0.commit.op_class_0::SimdShaSigma3            0      0.00%     56.62% # Class of committed instruction
system.cpu0.commit.op_class_0::SimdPredAlu            0      0.00%     56.62% # Class of committed instruction
system.cpu0.commit.op_class_0::MemRead      670810351     31.28%     87.90% # Class of committed instruction
system.cpu0.commit.op_class_0::MemWrite     259552090     12.10%    100.00% # Class of committed instruction
=======
final_tick                               2032142000500                       # Number of ticks from beginning of simulation (restored from checkpoints and never reset)
host_inst_rate                                  80694                       # Simulator instruction rate (inst/s)
host_mem_usage                                 702260                       # Number of bytes of host memory used
host_op_rate                                    80954                       # Simulator op (including micro ops) rate (op/s)
host_seconds                                 29184.40                       # Real time elapsed on the host
host_tick_rate                               69631104                       # Simulator tick rate (ticks/s)
sim_freq                                 1000000000000                       # Frequency of simulated ticks
sim_insts                                  2354998322                       # Number of instructions simulated
sim_ops                                    2362607223                       # Number of ops (including micro ops) simulated
sim_seconds                                  2.032142                       # Number of seconds simulated
sim_ticks                                2032142000500                       # Number of ticks simulated
system.cpu0.branchPred.BTBCorrect                   0                       # Number of correct BTB predictions (this stat may not work properly.
system.cpu0.branchPred.BTBHitPct            87.798834                       # BTB Hit Percentage
system.cpu0.branchPred.BTBHits              306440614                       # Number of BTB hits
system.cpu0.branchPred.BTBLookups           349025837                       # Number of BTB lookups
system.cpu0.branchPred.RASInCorrect                 0                       # Number of incorrect RAS predictions.
system.cpu0.branchPred.condIncorrect         31416671                       # Number of conditional branches incorrect
system.cpu0.branchPred.condPredicted        463798221                       # Number of conditional branches predicted
system.cpu0.branchPred.indirectHits          39498769                       # Number of indirect target hits.
system.cpu0.branchPred.indirectLookups       40160826                       # Number of indirect predictor lookups.
system.cpu0.branchPred.indirectMisses          662057                       # Number of indirect misses.
system.cpu0.branchPred.lookups              597443551                       # Number of BP lookups
system.cpu0.branchPred.usedRAS                      0                       # Number of times the RAS was used to get a target.
system.cpu0.branchPredindirectMispredicted      3960244                       # Number of mispredicted indirect branches.
system.cpu0.commit.amos                       3801862                       # Number of atomic instructions committed
system.cpu0.commit.branchMispredicts         17734764                       # The number of times a branch was mispredicted
system.cpu0.commit.branches                 555052269                       # Number of branches committed
system.cpu0.commit.bw_lim_events             60304145                       # number cycles where commit BW limit reached
system.cpu0.commit.commitNonSpecStalls       11419472                       # The number of times commit has been forced to stall to communicate backwards
system.cpu0.commit.commitSquashedInsts      128925641                       # The number of squashed insts skipped by commit
system.cpu0.commit.committedInsts          2224916419                       # Number of instructions committed
system.cpu0.commit.committedOps            2228723566                       # Number of ops (including micro ops) committed
system.cpu0.commit.committed_per_cycle::samples   3730284983                       # Number of insts commited each cycle
system.cpu0.commit.committed_per_cycle::mean     0.597467                       # Number of insts commited each cycle
system.cpu0.commit.committed_per_cycle::stdev     1.353150                       # Number of insts commited each cycle
system.cpu0.commit.committed_per_cycle::underflows            0      0.00%      0.00% # Number of insts commited each cycle
system.cpu0.commit.committed_per_cycle::0   2651307516     71.08%     71.08% # Number of insts commited each cycle
system.cpu0.commit.committed_per_cycle::1    643438730     17.25%     88.32% # Number of insts commited each cycle
system.cpu0.commit.committed_per_cycle::2    148119371      3.97%     92.29% # Number of insts commited each cycle
system.cpu0.commit.committed_per_cycle::3    150341153      4.03%     96.33% # Number of insts commited each cycle
system.cpu0.commit.committed_per_cycle::4     47398039      1.27%     97.60% # Number of insts commited each cycle
system.cpu0.commit.committed_per_cycle::5     15400842      0.41%     98.01% # Number of insts commited each cycle
system.cpu0.commit.committed_per_cycle::6      8833200      0.24%     98.25% # Number of insts commited each cycle
system.cpu0.commit.committed_per_cycle::7      5141987      0.14%     98.38% # Number of insts commited each cycle
system.cpu0.commit.committed_per_cycle::8     60304145      1.62%    100.00% # Number of insts commited each cycle
system.cpu0.commit.committed_per_cycle::overflows            0      0.00%    100.00% # Number of insts commited each cycle
system.cpu0.commit.committed_per_cycle::min_value            0                       # Number of insts commited each cycle
system.cpu0.commit.committed_per_cycle::max_value            8                       # Number of insts commited each cycle
system.cpu0.commit.committed_per_cycle::total   3730284983                       # Number of insts commited each cycle
system.cpu0.commit.fp_insts                        50                       # Number of committed floating point instructions.
system.cpu0.commit.function_calls            44166898                       # Number of function calls committed.
system.cpu0.commit.int_insts               2151022796                       # Number of committed integer instructions.
system.cpu0.commit.loads                    691566781                       # Number of loads committed
system.cpu0.commit.membars                    7608877                       # Number of memory barriers committed
system.cpu0.commit.op_class_0::No_OpClass      7608883      0.34%      0.34% # Class of committed instruction
system.cpu0.commit.op_class_0::IntAlu      1238842523     55.59%     55.93% # Class of committed instruction
system.cpu0.commit.op_class_0::IntMult       18318071      0.82%     56.75% # Class of committed instruction
system.cpu0.commit.op_class_0::IntDiv         3801411      0.17%     56.92% # Class of committed instruction
system.cpu0.commit.op_class_0::FloatAdd             0      0.00%     56.92% # Class of committed instruction
system.cpu0.commit.op_class_0::FloatCmp             4      0.00%     56.92% # Class of committed instruction
system.cpu0.commit.op_class_0::FloatCvt            12      0.00%     56.92% # Class of committed instruction
system.cpu0.commit.op_class_0::FloatMult            0      0.00%     56.92% # Class of committed instruction
system.cpu0.commit.op_class_0::FloatMultAcc            0      0.00%     56.92% # Class of committed instruction
system.cpu0.commit.op_class_0::FloatDiv             2      0.00%     56.92% # Class of committed instruction
system.cpu0.commit.op_class_0::FloatMisc            4      0.00%     56.92% # Class of committed instruction
system.cpu0.commit.op_class_0::FloatSqrt            0      0.00%     56.92% # Class of committed instruction
system.cpu0.commit.op_class_0::SimdAdd              0      0.00%     56.92% # Class of committed instruction
system.cpu0.commit.op_class_0::SimdAddAcc            0      0.00%     56.92% # Class of committed instruction
system.cpu0.commit.op_class_0::SimdAlu              0      0.00%     56.92% # Class of committed instruction
system.cpu0.commit.op_class_0::SimdCmp              0      0.00%     56.92% # Class of committed instruction
system.cpu0.commit.op_class_0::SimdCvt              0      0.00%     56.92% # Class of committed instruction
system.cpu0.commit.op_class_0::SimdMisc             0      0.00%     56.92% # Class of committed instruction
system.cpu0.commit.op_class_0::SimdMult             0      0.00%     56.92% # Class of committed instruction
system.cpu0.commit.op_class_0::SimdMultAcc            0      0.00%     56.92% # Class of committed instruction
system.cpu0.commit.op_class_0::SimdShift            0      0.00%     56.92% # Class of committed instruction
system.cpu0.commit.op_class_0::SimdShiftAcc            0      0.00%     56.92% # Class of committed instruction
system.cpu0.commit.op_class_0::SimdDiv              0      0.00%     56.92% # Class of committed instruction
system.cpu0.commit.op_class_0::SimdSqrt             0      0.00%     56.92% # Class of committed instruction
system.cpu0.commit.op_class_0::SimdFloatAdd            0      0.00%     56.92% # Class of committed instruction
system.cpu0.commit.op_class_0::SimdFloatAlu            0      0.00%     56.92% # Class of committed instruction
system.cpu0.commit.op_class_0::SimdFloatCmp            0      0.00%     56.92% # Class of committed instruction
system.cpu0.commit.op_class_0::SimdFloatCvt            0      0.00%     56.92% # Class of committed instruction
system.cpu0.commit.op_class_0::SimdFloatDiv            0      0.00%     56.92% # Class of committed instruction
system.cpu0.commit.op_class_0::SimdFloatMisc            0      0.00%     56.92% # Class of committed instruction
system.cpu0.commit.op_class_0::SimdFloatMult            0      0.00%     56.92% # Class of committed instruction
system.cpu0.commit.op_class_0::SimdFloatMultAcc            0      0.00%     56.92% # Class of committed instruction
system.cpu0.commit.op_class_0::SimdFloatSqrt            0      0.00%     56.92% # Class of committed instruction
system.cpu0.commit.op_class_0::SimdReduceAdd            0      0.00%     56.92% # Class of committed instruction
system.cpu0.commit.op_class_0::SimdReduceAlu            0      0.00%     56.92% # Class of committed instruction
system.cpu0.commit.op_class_0::SimdReduceCmp            0      0.00%     56.92% # Class of committed instruction
system.cpu0.commit.op_class_0::SimdFloatReduceAdd            0      0.00%     56.92% # Class of committed instruction
system.cpu0.commit.op_class_0::SimdFloatReduceCmp            0      0.00%     56.92% # Class of committed instruction
system.cpu0.commit.op_class_0::SimdAes              0      0.00%     56.92% # Class of committed instruction
system.cpu0.commit.op_class_0::SimdAesMix            0      0.00%     56.92% # Class of committed instruction
system.cpu0.commit.op_class_0::SimdSha1Hash            0      0.00%     56.92% # Class of committed instruction
system.cpu0.commit.op_class_0::SimdSha1Hash2            0      0.00%     56.92% # Class of committed instruction
system.cpu0.commit.op_class_0::SimdSha256Hash            0      0.00%     56.92% # Class of committed instruction
system.cpu0.commit.op_class_0::SimdSha256Hash2            0      0.00%     56.92% # Class of committed instruction
system.cpu0.commit.op_class_0::SimdShaSigma2            0      0.00%     56.92% # Class of committed instruction
system.cpu0.commit.op_class_0::SimdShaSigma3            0      0.00%     56.92% # Class of committed instruction
system.cpu0.commit.op_class_0::SimdPredAlu            0      0.00%     56.92% # Class of committed instruction
system.cpu0.commit.op_class_0::MemRead      695368635     31.20%     88.12% # Class of committed instruction
system.cpu0.commit.op_class_0::MemWrite     264783993     11.88%    100.00% # Class of committed instruction
>>>>>>> 6be7a0502e78ebf80a09b838e3e9c0d652379c93
system.cpu0.commit.op_class_0::FloatMemRead            8      0.00%    100.00% # Class of committed instruction
system.cpu0.commit.op_class_0::FloatMemWrite           20      0.00%    100.00% # Class of committed instruction
system.cpu0.commit.op_class_0::IprAccess            0      0.00%    100.00% # Class of committed instruction
system.cpu0.commit.op_class_0::InstPrefetch            0      0.00%    100.00% # Class of committed instruction
<<<<<<< HEAD
system.cpu0.commit.op_class_0::total       2144571877                       # Class of committed instruction
system.cpu0.commit.refs                     930362469                       # Number of memory references committed
system.cpu0.commit.swp_count                        0                       # Number of s/w prefetches committed
system.cpu0.commit.vec_insts                        0                       # Number of committed Vector instructions.
system.cpu0.committedInsts                 2142665343                       # Number of Instructions Simulated
system.cpu0.committedOps                   2144571877                       # Number of Ops (including micro ops) Simulated
system.cpu0.cpi                              1.708433                       # CPI: Cycles Per Instruction
system.cpu0.cpi_total                        1.708433                       # CPI: Total CPI of All Threads
system.cpu0.decode.BlockedCycles            463754100                       # Number of cycles decode is blocked
system.cpu0.decode.BranchMispred              8650728                       # Number of times decode detected a branch misprediction
system.cpu0.decode.BranchResolved           283962483                       # Number of times decode resolved a branch
system.cpu0.decode.DecodedInsts            2336701538                       # Number of instructions handled by decode
system.cpu0.decode.IdleCycles              1296504945                       # Number of cycles decode is idle
system.cpu0.decode.RunCycles               1620221784                       # Number of cycles decode is running
system.cpu0.decode.SquashCycles              16348618                       # Number of cycles decode is squashing
system.cpu0.decode.SquashedInsts             26795818                       # Number of squashed instructions handled by decode
system.cpu0.decode.UnblockCycles              8407174                       # Number of cycles decode is unblocking
=======
system.cpu0.commit.op_class_0::total       2228723566                       # Class of committed instruction
system.cpu0.commit.refs                     960152656                       # Number of memory references committed
system.cpu0.commit.swp_count                        0                       # Number of s/w prefetches committed
system.cpu0.commit.vec_insts                        0                       # Number of committed Vector instructions.
system.cpu0.committedInsts                 2224916419                       # Number of Instructions Simulated
system.cpu0.committedOps                   2228723566                       # Number of Ops (including micro ops) Simulated
system.cpu0.cpi                              1.822469                       # CPI: Cycles Per Instruction
system.cpu0.cpi_total                        1.822469                       # CPI: Total CPI of All Threads
system.cpu0.decode.BlockedCycles            750465611                       # Number of cycles decode is blocked
system.cpu0.decode.BranchMispred             13695895                       # Number of times decode detected a branch misprediction
system.cpu0.decode.BranchResolved           299329914                       # Number of times decode resolved a branch
system.cpu0.decode.DecodedInsts            2396385999                       # Number of instructions handled by decode
system.cpu0.decode.IdleCycles              1347469088                       # Number of cycles decode is idle
system.cpu0.decode.RunCycles               1632662721                       # Number of cycles decode is running
system.cpu0.decode.SquashCycles              17751008                       # Number of cycles decode is squashing
system.cpu0.decode.SquashedInsts             20126089                       # Number of squashed instructions handled by decode
system.cpu0.decode.UnblockCycles             11176292                       # Number of cycles decode is unblocking
>>>>>>> 6be7a0502e78ebf80a09b838e3e9c0d652379c93
system.cpu0.dtb.accesses                            0                       # DTB accesses
system.cpu0.dtb.hits                                0                       # DTB hits
system.cpu0.dtb.misses                              0                       # DTB misses
system.cpu0.dtb.read_accesses                       0                       # DTB read accesses
system.cpu0.dtb.read_hits                           0                       # DTB read hits
system.cpu0.dtb.read_misses                         0                       # DTB read misses
system.cpu0.dtb.write_accesses                      0                       # DTB write accesses
system.cpu0.dtb.write_hits                          0                       # DTB write hits
system.cpu0.dtb.write_misses                        0                       # DTB write misses
<<<<<<< HEAD
system.cpu0.fetch.Branches                  580681774                       # Number of branches that fetch encountered
system.cpu0.fetch.CacheLines                392916720                       # Number of cache lines fetched
system.cpu0.fetch.Cycles                   2106071739                       # Number of cycles fetch has run and was not squashing or blocked
system.cpu0.fetch.IcacheSquashes             10372540                       # Number of outstanding Icache misses that were squashed
system.cpu0.fetch.IcacheWaitRetryStallCycles           86                       # Number of stall cycles due to full MSHR
system.cpu0.fetch.Insts                    2391691731                       # Number of instructions fetch has processed
system.cpu0.fetch.MiscStallCycles                  31                       # Number of cycles fetch has spent waiting on interrupts, or bad addresses, or out of MSHRs
system.cpu0.fetch.PendingTrapStallCycles          143                       # Number of stall cycles due to pending traps
system.cpu0.fetch.SquashCycles               49987056                       # Number of cycles fetch has spent squashing
system.cpu0.fetch.branchRate                 0.158630                       # Number of branch fetches per cycle
system.cpu0.fetch.icacheStallCycles        1274171094                       # Number of cycles fetch is stalled on an Icache miss
system.cpu0.fetch.predictedBranches         331634852                       # Number of branches that fetch has predicted taken
system.cpu0.fetch.rate                       0.653361                       # Number of inst fetches per cycle
system.cpu0.fetch.rateDist::samples        3405236621                       # Number of instructions fetched each cycle (Total)
system.cpu0.fetch.rateDist::mean             0.702917                       # Number of instructions fetched each cycle (Total)
system.cpu0.fetch.rateDist::stdev            0.921736                       # Number of instructions fetched each cycle (Total)
system.cpu0.fetch.rateDist::underflows              0      0.00%      0.00% # Number of instructions fetched each cycle (Total)
system.cpu0.fetch.rateDist::0              1720521922     50.53%     50.53% # Number of instructions fetched each cycle (Total)
system.cpu0.fetch.rateDist::1              1248648088     36.67%     87.19% # Number of instructions fetched each cycle (Total)
system.cpu0.fetch.rateDist::2               227572730      6.68%     93.88% # Number of instructions fetched each cycle (Total)
system.cpu0.fetch.rateDist::3               165875806      4.87%     98.75% # Number of instructions fetched each cycle (Total)
system.cpu0.fetch.rateDist::4                32749562      0.96%     99.71% # Number of instructions fetched each cycle (Total)
system.cpu0.fetch.rateDist::5                 5647824      0.17%     99.88% # Number of instructions fetched each cycle (Total)
system.cpu0.fetch.rateDist::6                  412292      0.01%     99.89% # Number of instructions fetched each cycle (Total)
system.cpu0.fetch.rateDist::7                     496      0.00%     99.89% # Number of instructions fetched each cycle (Total)
system.cpu0.fetch.rateDist::8                 3807901      0.11%    100.00% # Number of instructions fetched each cycle (Total)
system.cpu0.fetch.rateDist::overflows               0      0.00%    100.00% # Number of instructions fetched each cycle (Total)
system.cpu0.fetch.rateDist::min_value               0                       # Number of instructions fetched each cycle (Total)
system.cpu0.fetch.rateDist::max_value               8                       # Number of instructions fetched each cycle (Total)
system.cpu0.fetch.rateDist::total          3405236621                       # Number of instructions fetched each cycle (Total)
system.cpu0.fp_regfile_reads                       44                       # number of floating regfile reads
system.cpu0.fp_regfile_writes                      23                       # number of floating regfile writes
system.cpu0.idleCycles                      255363395                       # Total number of cycles that the CPU has spent unscheduled due to idling
system.cpu0.iew.branchMispredicts            16550010                       # Number of branch mispredicts detected at execute
system.cpu0.iew.exec_branches               557730764                       # Number of branches executed
system.cpu0.iew.exec_nop                            0                       # number of nop insts executed
system.cpu0.iew.exec_rate                    0.627403                       # Inst execution rate
system.cpu0.iew.exec_refs                  1025329853                       # number of memory reference insts executed
system.cpu0.iew.exec_stores                 283581061                       # Number of stores executed
system.cpu0.iew.exec_swp                            0                       # number of swp insts executed
system.cpu0.iew.iewBlockCycles              345162263                       # Number of cycles IEW is blocking
system.cpu0.iew.iewDispLoadInsts            737710889                       # Number of dispatched load instructions
system.cpu0.iew.iewDispNonSpecInsts           1910580                       # Number of dispatched non-speculative instructions
system.cpu0.iew.iewDispSquashedInsts          7692655                       # Number of squashed instructions skipped by dispatch
system.cpu0.iew.iewDispStoreInsts           285801438                       # Number of dispatched store instructions
system.cpu0.iew.iewDispatchedInsts         2305350063                       # Number of instructions dispatched to IQ
system.cpu0.iew.iewExecLoadInsts            741748792                       # Number of load instructions executed
system.cpu0.iew.iewExecSquashedInsts          8570389                       # Number of squashed instructions skipped in execute
system.cpu0.iew.iewExecutedInsts           2296672763                       # Number of executed instructions
system.cpu0.iew.iewIQFullEvents               1780452                       # Number of times the IQ has become full, causing a stall
system.cpu0.iew.iewIdleCycles                       0                       # Number of cycles IEW is idle
system.cpu0.iew.iewLSQFullEvents             10560565                       # Number of times the LSQ has become full, causing a stall
system.cpu0.iew.iewSquashCycles              16348618                       # Number of cycles IEW is squashing
system.cpu0.iew.iewUnblockCycles             14419240                       # Number of cycles IEW is unblocking
system.cpu0.iew.lsq.thread0.blockedLoads            0                       # Number of blocked loads due to partial load-store forwarding
system.cpu0.iew.lsq.thread0.cacheBlocked       257988                       # Number of times an access to memory failed due to the cache being blocked
system.cpu0.iew.lsq.thread0.forwLoads        38275347                       # Number of loads that had data forwarded from stores
system.cpu0.iew.lsq.thread0.ignoredResponses        88108                       # Number of memory responses ignored because the instruction is squashed
system.cpu0.iew.lsq.thread0.invAddrLoads            0                       # Number of loads ignored due to an invalid address
system.cpu0.iew.lsq.thread0.invAddrSwpfs            0                       # Number of software prefetches ignored due to an invalid address
system.cpu0.iew.lsq.thread0.memOrderViolation        17396                       # Number of memory ordering violations
system.cpu0.iew.lsq.thread0.rescheduledLoads     12863492                       # Number of loads that were rescheduled
system.cpu0.iew.lsq.thread0.squashedLoads     68801781                       # Number of loads squashed
system.cpu0.iew.lsq.thread0.squashedStores     24348077                       # Number of stores squashed
system.cpu0.iew.memOrderViolationEvents         17396                       # Number of memory order violations
system.cpu0.iew.predictedNotTakenIncorrect      1910680                       # Number of branches that were predicted not taken incorrectly
system.cpu0.iew.predictedTakenIncorrect      14639330                       # Number of branches that were predicted taken incorrectly
system.cpu0.iew.wb_consumers               1022352869                       # num instructions consuming a value
system.cpu0.iew.wb_count                   2277722074                       # cumulative count of insts written-back
system.cpu0.iew.wb_fanout                    0.838830                       # average fanout of values written-back
system.cpu0.iew.wb_producers                857580610                       # num instructions producing a value
system.cpu0.iew.wb_rate                      0.622226                       # insts written-back per cycle
system.cpu0.iew.wb_sent                    2278117198                       # cumulative count of insts sent to commit
system.cpu0.int_regfile_reads              2799367237                       # number of integer regfile reads
system.cpu0.int_regfile_writes             1457275971                       # number of integer regfile writes
system.cpu0.ipc                              0.585332                       # IPC: Instructions Per Cycle
system.cpu0.ipc_total                        0.585332                       # IPC: Total IPC of All Threads
system.cpu0.iq.FU_type_0::No_OpClass          3810706      0.17%      0.17% # Type of FU issued
system.cpu0.iq.FU_type_0::IntAlu           1250572990     54.25%     54.41% # Type of FU issued
system.cpu0.iq.FU_type_0::IntMult            18650122      0.81%     55.22% # Type of FU issued
system.cpu0.iq.FU_type_0::IntDiv              3802496      0.16%     55.39% # Type of FU issued
system.cpu0.iq.FU_type_0::FloatAdd                  0      0.00%     55.39% # Type of FU issued
system.cpu0.iq.FU_type_0::FloatCmp                  4      0.00%     55.39% # Type of FU issued
system.cpu0.iq.FU_type_0::FloatCvt                 12      0.00%     55.39% # Type of FU issued
system.cpu0.iq.FU_type_0::FloatMult                 0      0.00%     55.39% # Type of FU issued
system.cpu0.iq.FU_type_0::FloatMultAcc              0      0.00%     55.39% # Type of FU issued
system.cpu0.iq.FU_type_0::FloatDiv                  2      0.00%     55.39% # Type of FU issued
system.cpu0.iq.FU_type_0::FloatMisc                 4      0.00%     55.39% # Type of FU issued
system.cpu0.iq.FU_type_0::FloatSqrt                 0      0.00%     55.39% # Type of FU issued
system.cpu0.iq.FU_type_0::SimdAdd                   0      0.00%     55.39% # Type of FU issued
system.cpu0.iq.FU_type_0::SimdAddAcc                0      0.00%     55.39% # Type of FU issued
system.cpu0.iq.FU_type_0::SimdAlu                   0      0.00%     55.39% # Type of FU issued
system.cpu0.iq.FU_type_0::SimdCmp                   0      0.00%     55.39% # Type of FU issued
system.cpu0.iq.FU_type_0::SimdCvt                   0      0.00%     55.39% # Type of FU issued
system.cpu0.iq.FU_type_0::SimdMisc                  0      0.00%     55.39% # Type of FU issued
system.cpu0.iq.FU_type_0::SimdMult                  0      0.00%     55.39% # Type of FU issued
system.cpu0.iq.FU_type_0::SimdMultAcc               0      0.00%     55.39% # Type of FU issued
system.cpu0.iq.FU_type_0::SimdShift                 0      0.00%     55.39% # Type of FU issued
system.cpu0.iq.FU_type_0::SimdShiftAcc              0      0.00%     55.39% # Type of FU issued
system.cpu0.iq.FU_type_0::SimdDiv                   0      0.00%     55.39% # Type of FU issued
system.cpu0.iq.FU_type_0::SimdSqrt                  0      0.00%     55.39% # Type of FU issued
system.cpu0.iq.FU_type_0::SimdFloatAdd              0      0.00%     55.39% # Type of FU issued
system.cpu0.iq.FU_type_0::SimdFloatAlu              0      0.00%     55.39% # Type of FU issued
system.cpu0.iq.FU_type_0::SimdFloatCmp              0      0.00%     55.39% # Type of FU issued
system.cpu0.iq.FU_type_0::SimdFloatCvt              0      0.00%     55.39% # Type of FU issued
system.cpu0.iq.FU_type_0::SimdFloatDiv              0      0.00%     55.39% # Type of FU issued
system.cpu0.iq.FU_type_0::SimdFloatMisc             0      0.00%     55.39% # Type of FU issued
system.cpu0.iq.FU_type_0::SimdFloatMult             0      0.00%     55.39% # Type of FU issued
system.cpu0.iq.FU_type_0::SimdFloatMultAcc            0      0.00%     55.39% # Type of FU issued
system.cpu0.iq.FU_type_0::SimdFloatSqrt             0      0.00%     55.39% # Type of FU issued
system.cpu0.iq.FU_type_0::SimdReduceAdd             0      0.00%     55.39% # Type of FU issued
system.cpu0.iq.FU_type_0::SimdReduceAlu             0      0.00%     55.39% # Type of FU issued
system.cpu0.iq.FU_type_0::SimdReduceCmp             0      0.00%     55.39% # Type of FU issued
system.cpu0.iq.FU_type_0::SimdFloatReduceAdd            0      0.00%     55.39% # Type of FU issued
system.cpu0.iq.FU_type_0::SimdFloatReduceCmp            0      0.00%     55.39% # Type of FU issued
system.cpu0.iq.FU_type_0::SimdAes                   0      0.00%     55.39% # Type of FU issued
system.cpu0.iq.FU_type_0::SimdAesMix                0      0.00%     55.39% # Type of FU issued
system.cpu0.iq.FU_type_0::SimdSha1Hash              0      0.00%     55.39% # Type of FU issued
system.cpu0.iq.FU_type_0::SimdSha1Hash2             0      0.00%     55.39% # Type of FU issued
system.cpu0.iq.FU_type_0::SimdSha256Hash            0      0.00%     55.39% # Type of FU issued
system.cpu0.iq.FU_type_0::SimdSha256Hash2            0      0.00%     55.39% # Type of FU issued
system.cpu0.iq.FU_type_0::SimdShaSigma2             0      0.00%     55.39% # Type of FU issued
system.cpu0.iq.FU_type_0::SimdShaSigma3             0      0.00%     55.39% # Type of FU issued
system.cpu0.iq.FU_type_0::SimdPredAlu               0      0.00%     55.39% # Type of FU issued
system.cpu0.iq.FU_type_0::MemRead           746093161     32.37%     87.75% # Type of FU issued
system.cpu0.iq.FU_type_0::MemWrite          282313626     12.25%    100.00% # Type of FU issued
system.cpu0.iq.FU_type_0::FloatMemRead              9      0.00%    100.00% # Type of FU issued
system.cpu0.iq.FU_type_0::FloatMemWrite            20      0.00%    100.00% # Type of FU issued
system.cpu0.iq.FU_type_0::IprAccess                 0      0.00%    100.00% # Type of FU issued
system.cpu0.iq.FU_type_0::InstPrefetch              0      0.00%    100.00% # Type of FU issued
system.cpu0.iq.FU_type_0::total            2305243152                       # Type of FU issued
system.cpu0.iq.fp_alu_accesses                     55                       # Number of floating point alu accesses
system.cpu0.iq.fp_inst_queue_reads                106                       # Number of floating instruction queue reads
system.cpu0.iq.fp_inst_queue_wakeup_accesses           51                       # Number of floating instruction queue wakeup accesses
system.cpu0.iq.fp_inst_queue_writes                80                       # Number of floating instruction queue writes
system.cpu0.iq.fu_busy_cnt                    3051135                       # FU busy when requested
system.cpu0.iq.fu_busy_rate                  0.001324                       # FU busy rate (busy events/executed inst)
system.cpu0.iq.fu_full::No_OpClass                  0      0.00%      0.00% # attempts to use FU when none available
system.cpu0.iq.fu_full::IntAlu                 575868     18.87%     18.87% # attempts to use FU when none available
system.cpu0.iq.fu_full::IntMult                    28      0.00%     18.87% # attempts to use FU when none available
system.cpu0.iq.fu_full::IntDiv                      0      0.00%     18.87% # attempts to use FU when none available
system.cpu0.iq.fu_full::FloatAdd                    0      0.00%     18.87% # attempts to use FU when none available
system.cpu0.iq.fu_full::FloatCmp                    0      0.00%     18.87% # attempts to use FU when none available
system.cpu0.iq.fu_full::FloatCvt                    0      0.00%     18.87% # attempts to use FU when none available
system.cpu0.iq.fu_full::FloatMult                   0      0.00%     18.87% # attempts to use FU when none available
system.cpu0.iq.fu_full::FloatMultAcc                0      0.00%     18.87% # attempts to use FU when none available
system.cpu0.iq.fu_full::FloatDiv                    0      0.00%     18.87% # attempts to use FU when none available
system.cpu0.iq.fu_full::FloatMisc                   0      0.00%     18.87% # attempts to use FU when none available
system.cpu0.iq.fu_full::FloatSqrt                   0      0.00%     18.87% # attempts to use FU when none available
system.cpu0.iq.fu_full::SimdAdd                     0      0.00%     18.87% # attempts to use FU when none available
system.cpu0.iq.fu_full::SimdAddAcc                  0      0.00%     18.87% # attempts to use FU when none available
system.cpu0.iq.fu_full::SimdAlu                     0      0.00%     18.87% # attempts to use FU when none available
system.cpu0.iq.fu_full::SimdCmp                     0      0.00%     18.87% # attempts to use FU when none available
system.cpu0.iq.fu_full::SimdCvt                     0      0.00%     18.87% # attempts to use FU when none available
system.cpu0.iq.fu_full::SimdMisc                    0      0.00%     18.87% # attempts to use FU when none available
system.cpu0.iq.fu_full::SimdMult                    0      0.00%     18.87% # attempts to use FU when none available
system.cpu0.iq.fu_full::SimdMultAcc                 0      0.00%     18.87% # attempts to use FU when none available
system.cpu0.iq.fu_full::SimdShift                   0      0.00%     18.87% # attempts to use FU when none available
system.cpu0.iq.fu_full::SimdShiftAcc                0      0.00%     18.87% # attempts to use FU when none available
system.cpu0.iq.fu_full::SimdDiv                     0      0.00%     18.87% # attempts to use FU when none available
system.cpu0.iq.fu_full::SimdSqrt                    0      0.00%     18.87% # attempts to use FU when none available
system.cpu0.iq.fu_full::SimdFloatAdd                0      0.00%     18.87% # attempts to use FU when none available
system.cpu0.iq.fu_full::SimdFloatAlu                0      0.00%     18.87% # attempts to use FU when none available
system.cpu0.iq.fu_full::SimdFloatCmp                0      0.00%     18.87% # attempts to use FU when none available
system.cpu0.iq.fu_full::SimdFloatCvt                0      0.00%     18.87% # attempts to use FU when none available
system.cpu0.iq.fu_full::SimdFloatDiv                0      0.00%     18.87% # attempts to use FU when none available
system.cpu0.iq.fu_full::SimdFloatMisc               0      0.00%     18.87% # attempts to use FU when none available
system.cpu0.iq.fu_full::SimdFloatMult               0      0.00%     18.87% # attempts to use FU when none available
system.cpu0.iq.fu_full::SimdFloatMultAcc            0      0.00%     18.87% # attempts to use FU when none available
system.cpu0.iq.fu_full::SimdFloatSqrt               0      0.00%     18.87% # attempts to use FU when none available
system.cpu0.iq.fu_full::SimdReduceAdd               0      0.00%     18.87% # attempts to use FU when none available
system.cpu0.iq.fu_full::SimdReduceAlu               0      0.00%     18.87% # attempts to use FU when none available
system.cpu0.iq.fu_full::SimdReduceCmp               0      0.00%     18.87% # attempts to use FU when none available
system.cpu0.iq.fu_full::SimdFloatReduceAdd            0      0.00%     18.87% # attempts to use FU when none available
system.cpu0.iq.fu_full::SimdFloatReduceCmp            0      0.00%     18.87% # attempts to use FU when none available
system.cpu0.iq.fu_full::SimdAes                     0      0.00%     18.87% # attempts to use FU when none available
system.cpu0.iq.fu_full::SimdAesMix                  0      0.00%     18.87% # attempts to use FU when none available
system.cpu0.iq.fu_full::SimdSha1Hash                0      0.00%     18.87% # attempts to use FU when none available
system.cpu0.iq.fu_full::SimdSha1Hash2               0      0.00%     18.87% # attempts to use FU when none available
system.cpu0.iq.fu_full::SimdSha256Hash              0      0.00%     18.87% # attempts to use FU when none available
system.cpu0.iq.fu_full::SimdSha256Hash2             0      0.00%     18.87% # attempts to use FU when none available
system.cpu0.iq.fu_full::SimdShaSigma2               0      0.00%     18.87% # attempts to use FU when none available
system.cpu0.iq.fu_full::SimdShaSigma3               0      0.00%     18.87% # attempts to use FU when none available
system.cpu0.iq.fu_full::SimdPredAlu                 0      0.00%     18.87% # attempts to use FU when none available
system.cpu0.iq.fu_full::MemRead               1949299     63.89%     82.76% # attempts to use FU when none available
system.cpu0.iq.fu_full::MemWrite               525936     17.24%    100.00% # attempts to use FU when none available
=======
system.cpu0.fetch.Branches                  597443551                       # Number of branches that fetch encountered
system.cpu0.fetch.CacheLines                405570318                       # Number of cache lines fetched
system.cpu0.fetch.Cycles                   2406189675                       # Number of cycles fetch has run and was not squashing or blocked
system.cpu0.fetch.IcacheSquashes             12595355                       # Number of outstanding Icache misses that were squashed
system.cpu0.fetch.IcacheWaitRetryStallCycles          149                       # Number of stall cycles due to full MSHR
system.cpu0.fetch.Insts                    2437123688                       # Number of instructions fetch has processed
system.cpu0.fetch.MiscStallCycles                  27                       # Number of cycles fetch has spent waiting on interrupts, or bad addresses, or out of MSHRs
system.cpu0.fetch.PendingTrapStallCycles           91                       # Number of stall cycles due to pending traps
system.cpu0.fetch.SquashCycles               62865860                       # Number of cycles fetch has spent squashing
system.cpu0.fetch.branchRate                 0.147341                       # Number of branch fetches per cycle
system.cpu0.fetch.icacheStallCycles        1321901848                       # Number of cycles fetch is stalled on an Icache miss
system.cpu0.fetch.predictedBranches         345939383                       # Number of branches that fetch has predicted taken
system.cpu0.fetch.rate                       0.601041                       # Number of inst fetches per cycle
system.cpu0.fetch.rateDist::samples        3759524720                       # Number of instructions fetched each cycle (Total)
system.cpu0.fetch.rateDist::mean             0.649266                       # Number of instructions fetched each cycle (Total)
system.cpu0.fetch.rateDist::stdev            0.907677                       # Number of instructions fetched each cycle (Total)
system.cpu0.fetch.rateDist::underflows              0      0.00%      0.00% # Number of instructions fetched each cycle (Total)
system.cpu0.fetch.rateDist::0              2045411316     54.41%     54.41% # Number of instructions fetched each cycle (Total)
system.cpu0.fetch.rateDist::1              1266672543     33.69%     88.10% # Number of instructions fetched each cycle (Total)
system.cpu0.fetch.rateDist::2               235028771      6.25%     94.35% # Number of instructions fetched each cycle (Total)
system.cpu0.fetch.rateDist::3               168971970      4.49%     98.84% # Number of instructions fetched each cycle (Total)
system.cpu0.fetch.rateDist::4                32443953      0.86%     99.71% # Number of instructions fetched each cycle (Total)
system.cpu0.fetch.rateDist::5                 6082697      0.16%     99.87% # Number of instructions fetched each cycle (Total)
system.cpu0.fetch.rateDist::6                 1105705      0.03%     99.90% # Number of instructions fetched each cycle (Total)
system.cpu0.fetch.rateDist::7                     423      0.00%     99.90% # Number of instructions fetched each cycle (Total)
system.cpu0.fetch.rateDist::8                 3807342      0.10%    100.00% # Number of instructions fetched each cycle (Total)
system.cpu0.fetch.rateDist::overflows               0      0.00%    100.00% # Number of instructions fetched each cycle (Total)
system.cpu0.fetch.rateDist::min_value               0                       # Number of instructions fetched each cycle (Total)
system.cpu0.fetch.rateDist::max_value               8                       # Number of instructions fetched each cycle (Total)
system.cpu0.fetch.rateDist::total          3759524720                       # Number of instructions fetched each cycle (Total)
system.cpu0.fp_regfile_reads                       44                       # number of floating regfile reads
system.cpu0.fp_regfile_writes                      23                       # number of floating regfile writes
system.cpu0.idleCycles                      295316051                       # Total number of cycles that the CPU has spent unscheduled due to idling
system.cpu0.iew.branchMispredicts            18334846                       # Number of branch mispredicts detected at execute
system.cpu0.iew.exec_branches               566687125                       # Number of branches executed
system.cpu0.iew.exec_nop                            0                       # number of nop insts executed
system.cpu0.iew.exec_rate                    0.576335                       # Inst execution rate
system.cpu0.iew.exec_refs                  1034972551                       # number of memory reference insts executed
system.cpu0.iew.exec_stores                 275455525                       # Number of stores executed
system.cpu0.iew.exec_swp                            0                       # number of swp insts executed
system.cpu0.iew.iewBlockCycles              589174387                       # Number of cycles IEW is blocking
system.cpu0.iew.iewDispLoadInsts            757230555                       # Number of dispatched load instructions
system.cpu0.iew.iewDispNonSpecInsts           3810807                       # Number of dispatched non-speculative instructions
system.cpu0.iew.iewDispSquashedInsts          8836380                       # Number of squashed instructions skipped by dispatch
system.cpu0.iew.iewDispStoreInsts           277398942                       # Number of dispatched store instructions
system.cpu0.iew.iewDispatchedInsts         2357595880                       # Number of instructions dispatched to IQ
system.cpu0.iew.iewExecLoadInsts            759517026                       # Number of load instructions executed
system.cpu0.iew.iewExecSquashedInsts         17439520                       # Number of squashed instructions skipped in execute
system.cpu0.iew.iewExecutedInsts           2336946822                       # Number of executed instructions
system.cpu0.iew.iewIQFullEvents               2977264                       # Number of times the IQ has become full, causing a stall
system.cpu0.iew.iewIdleCycles                       0                       # Number of cycles IEW is idle
system.cpu0.iew.iewLSQFullEvents             12565864                       # Number of times the LSQ has become full, causing a stall
system.cpu0.iew.iewSquashCycles              17751008                       # Number of cycles IEW is squashing
system.cpu0.iew.iewUnblockCycles             19983277                       # Number of cycles IEW is unblocking
system.cpu0.iew.lsq.thread0.blockedLoads            0                       # Number of blocked loads due to partial load-store forwarding
system.cpu0.iew.lsq.thread0.cacheBlocked       320202                       # Number of times an access to memory failed due to the cache being blocked
system.cpu0.iew.lsq.thread0.forwLoads        37914107                       # Number of loads that had data forwarded from stores
system.cpu0.iew.lsq.thread0.ignoredResponses       103389                       # Number of memory responses ignored because the instruction is squashed
system.cpu0.iew.lsq.thread0.invAddrLoads            0                       # Number of loads ignored due to an invalid address
system.cpu0.iew.lsq.thread0.invAddrSwpfs            0                       # Number of software prefetches ignored due to an invalid address
system.cpu0.iew.lsq.thread0.memOrderViolation        16857                       # Number of memory ordering violations
system.cpu0.iew.lsq.thread0.rescheduledLoads      8770191                       # Number of loads that were rescheduled
system.cpu0.iew.lsq.thread0.squashedLoads     65663774                       # Number of loads squashed
system.cpu0.iew.lsq.thread0.squashedStores      8813067                       # Number of stores squashed
system.cpu0.iew.memOrderViolationEvents         16857                       # Number of memory order violations
system.cpu0.iew.predictedNotTakenIncorrect      2017035                       # Number of branches that were predicted not taken incorrectly
system.cpu0.iew.predictedTakenIncorrect      16317811                       # Number of branches that were predicted taken incorrectly
system.cpu0.iew.wb_consumers               1046293075                       # num instructions consuming a value
system.cpu0.iew.wb_count                   2312921033                       # cumulative count of insts written-back
system.cpu0.iew.wb_fanout                    0.838473                       # average fanout of values written-back
system.cpu0.iew.wb_producers                877288326                       # num instructions producing a value
system.cpu0.iew.wb_rate                      0.570410                       # insts written-back per cycle
system.cpu0.iew.wb_sent                    2313187700                       # cumulative count of insts sent to commit
system.cpu0.int_regfile_reads              2851301592                       # number of integer regfile reads
system.cpu0.int_regfile_writes             1487710384                       # number of integer regfile writes
system.cpu0.ipc                              0.548706                       # IPC: Instructions Per Cycle
system.cpu0.ipc_total                        0.548706                       # IPC: Total IPC of All Threads
system.cpu0.iq.FU_type_0::No_OpClass          7611767      0.32%      0.32% # Type of FU issued
system.cpu0.iq.FU_type_0::IntAlu           1285003424     54.58%     54.90% # Type of FU issued
system.cpu0.iq.FU_type_0::IntMult            18649546      0.79%     55.69% # Type of FU issued
system.cpu0.iq.FU_type_0::IntDiv              3802421      0.16%     55.86% # Type of FU issued
system.cpu0.iq.FU_type_0::FloatAdd                  0      0.00%     55.86% # Type of FU issued
system.cpu0.iq.FU_type_0::FloatCmp                  4      0.00%     55.86% # Type of FU issued
system.cpu0.iq.FU_type_0::FloatCvt                 12      0.00%     55.86% # Type of FU issued
system.cpu0.iq.FU_type_0::FloatMult                 0      0.00%     55.86% # Type of FU issued
system.cpu0.iq.FU_type_0::FloatMultAcc              0      0.00%     55.86% # Type of FU issued
system.cpu0.iq.FU_type_0::FloatDiv                  2      0.00%     55.86% # Type of FU issued
system.cpu0.iq.FU_type_0::FloatMisc                 4      0.00%     55.86% # Type of FU issued
system.cpu0.iq.FU_type_0::FloatSqrt                 0      0.00%     55.86% # Type of FU issued
system.cpu0.iq.FU_type_0::SimdAdd                   0      0.00%     55.86% # Type of FU issued
system.cpu0.iq.FU_type_0::SimdAddAcc                0      0.00%     55.86% # Type of FU issued
system.cpu0.iq.FU_type_0::SimdAlu                   0      0.00%     55.86% # Type of FU issued
system.cpu0.iq.FU_type_0::SimdCmp                   0      0.00%     55.86% # Type of FU issued
system.cpu0.iq.FU_type_0::SimdCvt                   0      0.00%     55.86% # Type of FU issued
system.cpu0.iq.FU_type_0::SimdMisc                  0      0.00%     55.86% # Type of FU issued
system.cpu0.iq.FU_type_0::SimdMult                  0      0.00%     55.86% # Type of FU issued
system.cpu0.iq.FU_type_0::SimdMultAcc               0      0.00%     55.86% # Type of FU issued
system.cpu0.iq.FU_type_0::SimdShift                 0      0.00%     55.86% # Type of FU issued
system.cpu0.iq.FU_type_0::SimdShiftAcc              0      0.00%     55.86% # Type of FU issued
system.cpu0.iq.FU_type_0::SimdDiv                   0      0.00%     55.86% # Type of FU issued
system.cpu0.iq.FU_type_0::SimdSqrt                  0      0.00%     55.86% # Type of FU issued
system.cpu0.iq.FU_type_0::SimdFloatAdd              0      0.00%     55.86% # Type of FU issued
system.cpu0.iq.FU_type_0::SimdFloatAlu              0      0.00%     55.86% # Type of FU issued
system.cpu0.iq.FU_type_0::SimdFloatCmp              0      0.00%     55.86% # Type of FU issued
system.cpu0.iq.FU_type_0::SimdFloatCvt              0      0.00%     55.86% # Type of FU issued
system.cpu0.iq.FU_type_0::SimdFloatDiv              0      0.00%     55.86% # Type of FU issued
system.cpu0.iq.FU_type_0::SimdFloatMisc             0      0.00%     55.86% # Type of FU issued
system.cpu0.iq.FU_type_0::SimdFloatMult             0      0.00%     55.86% # Type of FU issued
system.cpu0.iq.FU_type_0::SimdFloatMultAcc            0      0.00%     55.86% # Type of FU issued
system.cpu0.iq.FU_type_0::SimdFloatSqrt             0      0.00%     55.86% # Type of FU issued
system.cpu0.iq.FU_type_0::SimdReduceAdd             0      0.00%     55.86% # Type of FU issued
system.cpu0.iq.FU_type_0::SimdReduceAlu             0      0.00%     55.86% # Type of FU issued
system.cpu0.iq.FU_type_0::SimdReduceCmp             0      0.00%     55.86% # Type of FU issued
system.cpu0.iq.FU_type_0::SimdFloatReduceAdd            0      0.00%     55.86% # Type of FU issued
system.cpu0.iq.FU_type_0::SimdFloatReduceCmp            0      0.00%     55.86% # Type of FU issued
system.cpu0.iq.FU_type_0::SimdAes                   0      0.00%     55.86% # Type of FU issued
system.cpu0.iq.FU_type_0::SimdAesMix                0      0.00%     55.86% # Type of FU issued
system.cpu0.iq.FU_type_0::SimdSha1Hash              0      0.00%     55.86% # Type of FU issued
system.cpu0.iq.FU_type_0::SimdSha1Hash2             0      0.00%     55.86% # Type of FU issued
system.cpu0.iq.FU_type_0::SimdSha256Hash            0      0.00%     55.86% # Type of FU issued
system.cpu0.iq.FU_type_0::SimdSha256Hash2            0      0.00%     55.86% # Type of FU issued
system.cpu0.iq.FU_type_0::SimdShaSigma2             0      0.00%     55.86% # Type of FU issued
system.cpu0.iq.FU_type_0::SimdShaSigma3             0      0.00%     55.86% # Type of FU issued
system.cpu0.iq.FU_type_0::SimdPredAlu               0      0.00%     55.86% # Type of FU issued
system.cpu0.iq.FU_type_0::MemRead           767224344     32.59%     88.44% # Type of FU issued
system.cpu0.iq.FU_type_0::MemWrite          272094788     11.56%    100.00% # Type of FU issued
system.cpu0.iq.FU_type_0::FloatMemRead             10      0.00%    100.00% # Type of FU issued
system.cpu0.iq.FU_type_0::FloatMemWrite            20      0.00%    100.00% # Type of FU issued
system.cpu0.iq.FU_type_0::IprAccess                 0      0.00%    100.00% # Type of FU issued
system.cpu0.iq.FU_type_0::InstPrefetch              0      0.00%    100.00% # Type of FU issued
system.cpu0.iq.FU_type_0::total            2354386342                       # Type of FU issued
system.cpu0.iq.fp_alu_accesses                     56                       # Number of floating point alu accesses
system.cpu0.iq.fp_inst_queue_reads                108                       # Number of floating instruction queue reads
system.cpu0.iq.fp_inst_queue_wakeup_accesses           51                       # Number of floating instruction queue wakeup accesses
system.cpu0.iq.fp_inst_queue_writes                80                       # Number of floating instruction queue writes
system.cpu0.iq.fu_busy_cnt                    5260344                       # FU busy when requested
system.cpu0.iq.fu_busy_rate                  0.002234                       # FU busy rate (busy events/executed inst)
system.cpu0.iq.fu_full::No_OpClass                  0      0.00%      0.00% # attempts to use FU when none available
system.cpu0.iq.fu_full::IntAlu                 923479     17.56%     17.56% # attempts to use FU when none available
system.cpu0.iq.fu_full::IntMult                    42      0.00%     17.56% # attempts to use FU when none available
system.cpu0.iq.fu_full::IntDiv                      0      0.00%     17.56% # attempts to use FU when none available
system.cpu0.iq.fu_full::FloatAdd                    0      0.00%     17.56% # attempts to use FU when none available
system.cpu0.iq.fu_full::FloatCmp                    0      0.00%     17.56% # attempts to use FU when none available
system.cpu0.iq.fu_full::FloatCvt                    0      0.00%     17.56% # attempts to use FU when none available
system.cpu0.iq.fu_full::FloatMult                   0      0.00%     17.56% # attempts to use FU when none available
system.cpu0.iq.fu_full::FloatMultAcc                0      0.00%     17.56% # attempts to use FU when none available
system.cpu0.iq.fu_full::FloatDiv                    0      0.00%     17.56% # attempts to use FU when none available
system.cpu0.iq.fu_full::FloatMisc                   0      0.00%     17.56% # attempts to use FU when none available
system.cpu0.iq.fu_full::FloatSqrt                   0      0.00%     17.56% # attempts to use FU when none available
system.cpu0.iq.fu_full::SimdAdd                     0      0.00%     17.56% # attempts to use FU when none available
system.cpu0.iq.fu_full::SimdAddAcc                  0      0.00%     17.56% # attempts to use FU when none available
system.cpu0.iq.fu_full::SimdAlu                     0      0.00%     17.56% # attempts to use FU when none available
system.cpu0.iq.fu_full::SimdCmp                     0      0.00%     17.56% # attempts to use FU when none available
system.cpu0.iq.fu_full::SimdCvt                     0      0.00%     17.56% # attempts to use FU when none available
system.cpu0.iq.fu_full::SimdMisc                    0      0.00%     17.56% # attempts to use FU when none available
system.cpu0.iq.fu_full::SimdMult                    0      0.00%     17.56% # attempts to use FU when none available
system.cpu0.iq.fu_full::SimdMultAcc                 0      0.00%     17.56% # attempts to use FU when none available
system.cpu0.iq.fu_full::SimdShift                   0      0.00%     17.56% # attempts to use FU when none available
system.cpu0.iq.fu_full::SimdShiftAcc                0      0.00%     17.56% # attempts to use FU when none available
system.cpu0.iq.fu_full::SimdDiv                     0      0.00%     17.56% # attempts to use FU when none available
system.cpu0.iq.fu_full::SimdSqrt                    0      0.00%     17.56% # attempts to use FU when none available
system.cpu0.iq.fu_full::SimdFloatAdd                0      0.00%     17.56% # attempts to use FU when none available
system.cpu0.iq.fu_full::SimdFloatAlu                0      0.00%     17.56% # attempts to use FU when none available
system.cpu0.iq.fu_full::SimdFloatCmp                0      0.00%     17.56% # attempts to use FU when none available
system.cpu0.iq.fu_full::SimdFloatCvt                0      0.00%     17.56% # attempts to use FU when none available
system.cpu0.iq.fu_full::SimdFloatDiv                0      0.00%     17.56% # attempts to use FU when none available
system.cpu0.iq.fu_full::SimdFloatMisc               0      0.00%     17.56% # attempts to use FU when none available
system.cpu0.iq.fu_full::SimdFloatMult               0      0.00%     17.56% # attempts to use FU when none available
system.cpu0.iq.fu_full::SimdFloatMultAcc            0      0.00%     17.56% # attempts to use FU when none available
system.cpu0.iq.fu_full::SimdFloatSqrt               0      0.00%     17.56% # attempts to use FU when none available
system.cpu0.iq.fu_full::SimdReduceAdd               0      0.00%     17.56% # attempts to use FU when none available
system.cpu0.iq.fu_full::SimdReduceAlu               0      0.00%     17.56% # attempts to use FU when none available
system.cpu0.iq.fu_full::SimdReduceCmp               0      0.00%     17.56% # attempts to use FU when none available
system.cpu0.iq.fu_full::SimdFloatReduceAdd            0      0.00%     17.56% # attempts to use FU when none available
system.cpu0.iq.fu_full::SimdFloatReduceCmp            0      0.00%     17.56% # attempts to use FU when none available
system.cpu0.iq.fu_full::SimdAes                     0      0.00%     17.56% # attempts to use FU when none available
system.cpu0.iq.fu_full::SimdAesMix                  0      0.00%     17.56% # attempts to use FU when none available
system.cpu0.iq.fu_full::SimdSha1Hash                0      0.00%     17.56% # attempts to use FU when none available
system.cpu0.iq.fu_full::SimdSha1Hash2               0      0.00%     17.56% # attempts to use FU when none available
system.cpu0.iq.fu_full::SimdSha256Hash              0      0.00%     17.56% # attempts to use FU when none available
system.cpu0.iq.fu_full::SimdSha256Hash2             0      0.00%     17.56% # attempts to use FU when none available
system.cpu0.iq.fu_full::SimdShaSigma2               0      0.00%     17.56% # attempts to use FU when none available
system.cpu0.iq.fu_full::SimdShaSigma3               0      0.00%     17.56% # attempts to use FU when none available
system.cpu0.iq.fu_full::SimdPredAlu                 0      0.00%     17.56% # attempts to use FU when none available
system.cpu0.iq.fu_full::MemRead               3552730     67.54%     85.09% # attempts to use FU when none available
system.cpu0.iq.fu_full::MemWrite               784089     14.91%    100.00% # attempts to use FU when none available
>>>>>>> 6be7a0502e78ebf80a09b838e3e9c0d652379c93
system.cpu0.iq.fu_full::FloatMemRead                0      0.00%    100.00% # attempts to use FU when none available
system.cpu0.iq.fu_full::FloatMemWrite               4      0.00%    100.00% # attempts to use FU when none available
system.cpu0.iq.fu_full::IprAccess                   0      0.00%    100.00% # attempts to use FU when none available
system.cpu0.iq.fu_full::InstPrefetch                0      0.00%    100.00% # attempts to use FU when none available
<<<<<<< HEAD
system.cpu0.iq.int_alu_accesses            2304483526                       # Number of integer alu accesses
system.cpu0.iq.int_inst_queue_reads        8018967605                       # Number of integer instruction queue reads
system.cpu0.iq.int_inst_queue_wakeup_accesses   2277722023                       # Number of integer instruction queue wakeup accesses
system.cpu0.iq.int_inst_queue_writes       2466144116                       # Number of integer instruction queue writes
system.cpu0.iq.iqInstsAdded                2299631610                       # Number of instructions added to the IQ (excludes non-spec)
system.cpu0.iq.iqInstsIssued               2305243152                       # Number of instructions issued
system.cpu0.iq.iqNonSpecInstsAdded            5718453                       # Number of non-speculative instructions added to the IQ
system.cpu0.iq.iqSquashedInstsExamined      160778183                       # Number of squashed instructions iterated over during squash; mainly for profiling
system.cpu0.iq.iqSquashedInstsIssued           193651                       # Number of squashed instructions issued
system.cpu0.iq.iqSquashedNonSpecRemoved           470                       # Number of squashed non-spec instructions that were removed
system.cpu0.iq.iqSquashedOperandsExamined     28170947                       # Number of squashed operands that are examined and possibly removed from graph
system.cpu0.iq.issued_per_cycle::samples   3405236621                       # Number of insts issued each cycle
system.cpu0.iq.issued_per_cycle::mean        0.676970                       # Number of insts issued each cycle
system.cpu0.iq.issued_per_cycle::stdev       0.871450                       # Number of insts issued each cycle
system.cpu0.iq.issued_per_cycle::underflows            0      0.00%      0.00% # Number of insts issued each cycle
system.cpu0.iq.issued_per_cycle::0         1804605709     53.00%     53.00% # Number of insts issued each cycle
system.cpu0.iq.issued_per_cycle::1         1072364912     31.49%     84.49% # Number of insts issued each cycle
system.cpu0.iq.issued_per_cycle::2          381190663     11.19%     95.68% # Number of insts issued each cycle
system.cpu0.iq.issued_per_cycle::3          124313149      3.65%     99.33% # Number of insts issued each cycle
system.cpu0.iq.issued_per_cycle::4           19110161      0.56%     99.89% # Number of insts issued each cycle
system.cpu0.iq.issued_per_cycle::5            1624983      0.05%     99.94% # Number of insts issued each cycle
system.cpu0.iq.issued_per_cycle::6            1454070      0.04%     99.98% # Number of insts issued each cycle
system.cpu0.iq.issued_per_cycle::7             316304      0.01%     99.99% # Number of insts issued each cycle
system.cpu0.iq.issued_per_cycle::8             256670      0.01%    100.00% # Number of insts issued each cycle
system.cpu0.iq.issued_per_cycle::overflows            0      0.00%    100.00% # Number of insts issued each cycle
system.cpu0.iq.issued_per_cycle::min_value            0                       # Number of insts issued each cycle
system.cpu0.iq.issued_per_cycle::max_value            8                       # Number of insts issued each cycle
system.cpu0.iq.issued_per_cycle::total     3405236621                       # Number of insts issued each cycle
system.cpu0.iq.rate                          0.629745                       # Inst issue rate
=======
system.cpu0.iq.int_alu_accesses            2352034863                       # Number of integer alu accesses
system.cpu0.iq.int_inst_queue_reads        8473912715                       # Number of integer instruction queue reads
system.cpu0.iq.int_inst_queue_wakeup_accesses   2312920982                       # Number of integer instruction queue wakeup accesses
system.cpu0.iq.int_inst_queue_writes       2486483432                       # Number of integer instruction queue writes
system.cpu0.iq.iqInstsAdded                2346175998                       # Number of instructions added to the IQ (excludes non-spec)
system.cpu0.iq.iqInstsIssued               2354386342                       # Number of instructions issued
system.cpu0.iq.iqNonSpecInstsAdded           11419882                       # Number of non-speculative instructions added to the IQ
system.cpu0.iq.iqSquashedInstsExamined      128872311                       # Number of squashed instructions iterated over during squash; mainly for profiling
system.cpu0.iq.iqSquashedInstsIssued           355075                       # Number of squashed instructions issued
system.cpu0.iq.iqSquashedNonSpecRemoved           410                       # Number of squashed non-spec instructions that were removed
system.cpu0.iq.iqSquashedOperandsExamined     38815307                       # Number of squashed operands that are examined and possibly removed from graph
system.cpu0.iq.issued_per_cycle::samples   3759524720                       # Number of insts issued each cycle
system.cpu0.iq.issued_per_cycle::mean        0.626246                       # Number of insts issued each cycle
system.cpu0.iq.issued_per_cycle::stdev       0.856286                       # Number of insts issued each cycle
system.cpu0.iq.issued_per_cycle::underflows            0      0.00%      0.00% # Number of insts issued each cycle
system.cpu0.iq.issued_per_cycle::0         2117773999     56.33%     56.33% # Number of insts issued each cycle
system.cpu0.iq.issued_per_cycle::1         1110089102     29.53%     85.86% # Number of insts issued each cycle
system.cpu0.iq.issued_per_cycle::2          381207587     10.14%     96.00% # Number of insts issued each cycle
system.cpu0.iq.issued_per_cycle::3          128605900      3.42%     99.42% # Number of insts issued each cycle
system.cpu0.iq.issued_per_cycle::4           17091665      0.45%     99.87% # Number of insts issued each cycle
system.cpu0.iq.issued_per_cycle::5            2045373      0.05%     99.93% # Number of insts issued each cycle
system.cpu0.iq.issued_per_cycle::6            1895173      0.05%     99.98% # Number of insts issued each cycle
system.cpu0.iq.issued_per_cycle::7             427565      0.01%     99.99% # Number of insts issued each cycle
system.cpu0.iq.issued_per_cycle::8             388356      0.01%    100.00% # Number of insts issued each cycle
system.cpu0.iq.issued_per_cycle::overflows            0      0.00%    100.00% # Number of insts issued each cycle
system.cpu0.iq.issued_per_cycle::min_value            0                       # Number of insts issued each cycle
system.cpu0.iq.issued_per_cycle::max_value            8                       # Number of insts issued each cycle
system.cpu0.iq.issued_per_cycle::total     3759524720                       # Number of insts issued each cycle
system.cpu0.iq.rate                          0.580636                       # Inst issue rate
>>>>>>> 6be7a0502e78ebf80a09b838e3e9c0d652379c93
system.cpu0.iq.vec_alu_accesses                     0                       # Number of vector alu accesses
system.cpu0.iq.vec_inst_queue_reads                 0                       # Number of vector instruction queue reads
system.cpu0.iq.vec_inst_queue_wakeup_accesses            0                       # Number of vector instruction queue wakeup accesses
system.cpu0.iq.vec_inst_queue_writes                0                       # Number of vector instruction queue writes
system.cpu0.itb.accesses                            0                       # DTB accesses
system.cpu0.itb.hits                                0                       # DTB hits
system.cpu0.itb.misses                              0                       # DTB misses
system.cpu0.itb.read_accesses                       0                       # DTB read accesses
system.cpu0.itb.read_hits                           0                       # DTB read hits
system.cpu0.itb.read_misses                         0                       # DTB read misses
system.cpu0.itb.write_accesses                      0                       # DTB write accesses
system.cpu0.itb.write_hits                          0                       # DTB write hits
system.cpu0.itb.write_misses                        0                       # DTB write misses
<<<<<<< HEAD
[...]
system.cpu1.dcache.WriteReq_mshr_miss_rate::total     0.048240                       # mshr miss rate for WriteReq accesses
system.cpu1.dcache.WriteReq_avg_mshr_miss_latency::.cpu1.data 59148.385591                       # average WriteReq mshr miss latency
system.cpu1.dcache.WriteReq_avg_mshr_miss_latency::total 59148.385591                       # average WriteReq mshr miss latency
system.cpu1.dcache.LoadLockedReq_hits::.cpu1.data       137905                       # number of LoadLockedReq hits
system.cpu1.dcache.LoadLockedReq_hits::total       137905                       # number of LoadLockedReq hits
system.cpu1.dcache.LoadLockedReq_misses::.cpu1.data          828                       # number of LoadLockedReq misses
system.cpu1.dcache.LoadLockedReq_misses::total          828                       # number of LoadLockedReq misses
system.cpu1.dcache.LoadLockedReq_miss_latency::.cpu1.data     45467000                       # number of LoadLockedReq miss cycles
system.cpu1.dcache.LoadLockedReq_miss_latency::total     45467000                       # number of LoadLockedReq miss cycles
system.cpu1.dcache.LoadLockedReq_accesses::.cpu1.data       138733                       # number of LoadLockedReq accesses(hits+misses)
system.cpu1.dcache.LoadLockedReq_accesses::total       138733                       # number of LoadLockedReq accesses(hits+misses)
system.cpu1.dcache.LoadLockedReq_miss_rate::.cpu1.data     0.005968                       # miss rate for LoadLockedReq accesses
system.cpu1.dcache.LoadLockedReq_miss_rate::total     0.005968                       # miss rate for LoadLockedReq accesses
system.cpu1.dcache.LoadLockedReq_avg_miss_latency::.cpu1.data 54911.835749                       # average LoadLockedReq miss latency
system.cpu1.dcache.LoadLockedReq_avg_miss_latency::total 54911.835749                       # average LoadLockedReq miss latency
system.cpu1.dcache.LoadLockedReq_mshr_hits::.cpu1.data          337                       # number of LoadLockedReq MSHR hits
system.cpu1.dcache.LoadLockedReq_mshr_hits::total          337                       # number of LoadLockedReq MSHR hits
system.cpu1.dcache.LoadLockedReq_mshr_misses::.cpu1.data          491                       # number of LoadLockedReq MSHR misses
system.cpu1.dcache.LoadLockedReq_mshr_misses::total          491                       # number of LoadLockedReq MSHR misses
system.cpu1.dcache.LoadLockedReq_mshr_miss_latency::.cpu1.data     22777000                       # number of LoadLockedReq MSHR miss cycles
system.cpu1.dcache.LoadLockedReq_mshr_miss_latency::total     22777000                       # number of LoadLockedReq MSHR miss cycles
system.cpu1.dcache.LoadLockedReq_mshr_miss_rate::.cpu1.data     0.003539                       # mshr miss rate for LoadLockedReq accesses
system.cpu1.dcache.LoadLockedReq_mshr_miss_rate::total     0.003539                       # mshr miss rate for LoadLockedReq accesses
system.cpu1.dcache.LoadLockedReq_avg_mshr_miss_latency::.cpu1.data 46389.002037                       # average LoadLockedReq mshr miss latency
system.cpu1.dcache.LoadLockedReq_avg_mshr_miss_latency::total 46389.002037                       # average LoadLockedReq mshr miss latency
system.cpu1.dcache.StoreCondReq_hits::.cpu1.data       136485                       # number of StoreCondReq hits
system.cpu1.dcache.StoreCondReq_hits::total       136485                       # number of StoreCondReq hits
system.cpu1.dcache.StoreCondReq_misses::.cpu1.data         2049                       # number of StoreCondReq misses
system.cpu1.dcache.StoreCondReq_misses::total         2049                       # number of StoreCondReq misses
system.cpu1.dcache.StoreCondReq_miss_latency::.cpu1.data     14356000                       # number of StoreCondReq miss cycles
system.cpu1.dcache.StoreCondReq_miss_latency::total     14356000                       # number of StoreCondReq miss cycles
system.cpu1.dcache.StoreCondReq_accesses::.cpu1.data       138534                       # number of StoreCondReq accesses(hits+misses)
system.cpu1.dcache.StoreCondReq_accesses::total       138534                       # number of StoreCondReq accesses(hits+misses)
system.cpu1.dcache.StoreCondReq_miss_rate::.cpu1.data     0.014791                       # miss rate for StoreCondReq accesses
system.cpu1.dcache.StoreCondReq_miss_rate::total     0.014791                       # miss rate for StoreCondReq accesses
system.cpu1.dcache.StoreCondReq_avg_miss_latency::.cpu1.data  7006.344558                       # average StoreCondReq miss latency
system.cpu1.dcache.StoreCondReq_avg_miss_latency::total  7006.344558                       # average StoreCondReq miss latency
system.cpu1.dcache.StoreCondReq_mshr_misses::.cpu1.data         2002                       # number of StoreCondReq MSHR misses
system.cpu1.dcache.StoreCondReq_mshr_misses::total         2002                       # number of StoreCondReq MSHR misses
system.cpu1.dcache.StoreCondReq_mshr_miss_latency::.cpu1.data     12366000                       # number of StoreCondReq MSHR miss cycles
system.cpu1.dcache.StoreCondReq_mshr_miss_latency::total     12366000                       # number of StoreCondReq MSHR miss cycles
system.cpu1.dcache.StoreCondReq_mshr_miss_rate::.cpu1.data     0.014451                       # mshr miss rate for StoreCondReq accesses
system.cpu1.dcache.StoreCondReq_mshr_miss_rate::total     0.014451                       # mshr miss rate for StoreCondReq accesses
system.cpu1.dcache.StoreCondReq_avg_mshr_miss_latency::.cpu1.data  6176.823177                       # average StoreCondReq mshr miss latency
system.cpu1.dcache.StoreCondReq_avg_mshr_miss_latency::total  6176.823177                       # average StoreCondReq mshr miss latency
system.cpu1.dcache.StoreCondFailReq_miss_latency::.cpu1.data       310500                       # number of StoreCondFailReq miss cycles
system.cpu1.dcache.StoreCondFailReq_miss_latency::total       310500                       # number of StoreCondFailReq miss cycles
system.cpu1.dcache.StoreCondFailReq_avg_miss_latency::.cpu1.data          inf                       # average StoreCondFailReq miss latency
system.cpu1.dcache.StoreCondFailReq_avg_miss_latency::total          inf                       # average StoreCondFailReq miss latency
system.cpu1.dcache.StoreCondFailReq_mshr_miss_latency::.cpu1.data       298500                       # number of StoreCondFailReq MSHR miss cycles
system.cpu1.dcache.StoreCondFailReq_mshr_miss_latency::total       298500                       # number of StoreCondFailReq MSHR miss cycles
system.cpu1.dcache.StoreCondFailReq_avg_mshr_miss_latency::.cpu1.data          inf                       # average StoreCondFailReq mshr miss latency
system.cpu1.dcache.StoreCondFailReq_avg_mshr_miss_latency::total          inf                       # average StoreCondFailReq mshr miss latency
system.cpu1.dcache.SwapReq_hits::.cpu1.data         1823                       # number of SwapReq hits
system.cpu1.dcache.SwapReq_hits::total           1823                       # number of SwapReq hits
system.cpu1.dcache.SwapReq_misses::.cpu1.data         7088                       # number of SwapReq misses
system.cpu1.dcache.SwapReq_misses::total         7088                       # number of SwapReq misses
system.cpu1.dcache.SwapReq_miss_latency::.cpu1.data    312353499                       # number of SwapReq miss cycles
system.cpu1.dcache.SwapReq_miss_latency::total    312353499                       # number of SwapReq miss cycles
system.cpu1.dcache.SwapReq_accesses::.cpu1.data         8911                       # number of SwapReq accesses(hits+misses)
system.cpu1.dcache.SwapReq_accesses::total         8911                       # number of SwapReq accesses(hits+misses)
system.cpu1.dcache.SwapReq_miss_rate::.cpu1.data     0.795421                       # miss rate for SwapReq accesses
system.cpu1.dcache.SwapReq_miss_rate::total     0.795421                       # miss rate for SwapReq accesses
system.cpu1.dcache.SwapReq_avg_miss_latency::.cpu1.data 44067.931574                       # average SwapReq miss latency
system.cpu1.dcache.SwapReq_avg_miss_latency::total 44067.931574                       # average SwapReq miss latency
system.cpu1.dcache.SwapReq_mshr_misses::.cpu1.data         7088                       # number of SwapReq MSHR misses
system.cpu1.dcache.SwapReq_mshr_misses::total         7088                       # number of SwapReq MSHR misses
system.cpu1.dcache.SwapReq_mshr_miss_latency::.cpu1.data    305265499                       # number of SwapReq MSHR miss cycles
system.cpu1.dcache.SwapReq_mshr_miss_latency::total    305265499                       # number of SwapReq MSHR miss cycles
system.cpu1.dcache.SwapReq_mshr_miss_rate::.cpu1.data     0.795421                       # mshr miss rate for SwapReq accesses
system.cpu1.dcache.SwapReq_mshr_miss_rate::total     0.795421                       # mshr miss rate for SwapReq accesses
system.cpu1.dcache.SwapReq_avg_mshr_miss_latency::.cpu1.data 43067.931574                       # average SwapReq mshr miss latency
system.cpu1.dcache.SwapReq_avg_mshr_miss_latency::total 43067.931574                       # average SwapReq mshr miss latency
system.cpu1.dcache.tags.pwrStateResidencyTicks::UNDEFINED 222691393500                       # Cumulative time (in ticks) in various power states
system.cpu1.dcache.tags.tagsinuse           31.507584                       # Cycle average of tags in use
system.cpu1.dcache.tags.total_refs           48488730                       # Total number of references to valid blocks.
system.cpu1.dcache.tags.sampled_refs          5439476                       # Sample count of references to valid blocks.
system.cpu1.dcache.tags.avg_refs             8.914228                       # Average number of references to valid blocks.
system.cpu1.dcache.tags.warmup_cycle                0                       # Cycle when the warmup percentage was hit.
system.cpu1.dcache.tags.occ_blocks::.cpu1.data    31.507584                       # Average occupied blocks per requestor
system.cpu1.dcache.tags.occ_percent::.cpu1.data     0.984612                       # Average percentage of cache occupancy
system.cpu1.dcache.tags.occ_percent::total     0.984612                       # Average percentage of cache occupancy
system.cpu1.dcache.tags.occ_task_id_blocks::1024           28                       # Occupied blocks per task id
system.cpu1.dcache.tags.age_task_id_blocks_1024::1           28                       # Occupied blocks per task id
system.cpu1.dcache.tags.occ_task_id_percent::1024     0.875000                       # Percentage of cache occupancy per task id
system.cpu1.dcache.tags.tag_accesses        133309380                       # Number of tag accesses
system.cpu1.dcache.tags.data_accesses       133309380                       # Number of data accesses
system.cpu_clk_domain.clock                       500                       # Clock period in ticks
system.tol2bus.pwrStateResidencyTicks::UNDEFINED 222691393500                       # Cumulative time (in ticks) in various power states
system.tol2bus.trans_dist::ReadResp          10854849                       # Transaction distribution
system.tol2bus.trans_dist::WritebackDirty      2064603                       # Transaction distribution
system.tol2bus.trans_dist::WritebackClean      9861054                       # Transaction distribution
system.tol2bus.trans_dist::CleanEvict        16822952                       # Transaction distribution
system.tol2bus.trans_dist::HardPFReq          4696810                       # Transaction distribution
system.tol2bus.trans_dist::HardPFResp               7                       # Transaction distribution
system.tol2bus.trans_dist::UpgradeReq          126364                       # Transaction distribution
system.tol2bus.trans_dist::SCUpgradeReq          4268                       # Transaction distribution
system.tol2bus.trans_dist::UpgradeResp         130632                       # Transaction distribution
system.tol2bus.trans_dist::SCUpgradeFailReq           23                       # Transaction distribution
system.tol2bus.trans_dist::UpgradeFailResp           23                       # Transaction distribution
system.tol2bus.trans_dist::ReadExReq           407689                       # Transaction distribution
system.tol2bus.trans_dist::ReadExResp          407690                       # Transaction distribution
system.tol2bus.trans_dist::ReadCleanReq        142741                       # Transaction distribution
system.tol2bus.trans_dist::ReadSharedReq     10712107                       # Transaction distribution
system.tol2bus.trans_dist::InvalidateReq         4296                       # Transaction distribution
system.tol2bus.trans_dist::InvalidateResp         4296                       # Transaction distribution
system.tol2bus.pkt_count_system.cpu0.icache.mem_side::system.l2.cpu_side       355457                       # Packet count per connected master and slave (bytes)
system.tol2bus.pkt_count_system.cpu0.dcache.mem_side::system.l2.cpu_side     16955620                       # Packet count per connected master and slave (bytes)
system.tol2bus.pkt_count_system.cpu1.icache.mem_side::system.l2.cpu_side        72753                       # Packet count per connected master and slave (bytes)
system.tol2bus.pkt_count_system.cpu1.dcache.mem_side::system.l2.cpu_side     16218508                       # Packet count per connected master and slave (bytes)
system.tol2bus.pkt_count::total              33602338                       # Packet count per connected master and slave (bytes)
system.tol2bus.pkt_size_system.cpu0.icache.mem_side::system.l2.cpu_side     15165888                       # Cumulative packet size per connected master and slave (bytes)
system.tol2bus.pkt_size_system.cpu0.dcache.mem_side::system.l2.cpu_side    716067968                       # Cumulative packet size per connected master and slave (bytes)
system.tol2bus.pkt_size_system.cpu1.icache.mem_side::system.l2.cpu_side      3104128                       # Cumulative packet size per connected master and slave (bytes)
system.tol2bus.pkt_size_system.cpu1.dcache.mem_side::system.l2.cpu_side    684907200                       # Cumulative packet size per connected master and slave (bytes)
system.tol2bus.pkt_size::total             1419245184                       # Cumulative packet size per connected master and slave (bytes)
system.tol2bus.snoops                        22638073                       # Total snoops (count)
system.tol2bus.snoopTraffic                  64801728                       # Total snoop traffic (bytes)
system.tol2bus.snoop_fanout::samples         33752234                       # Request fanout histogram
system.tol2bus.snoop_fanout::mean            0.281332                       # Request fanout histogram
system.tol2bus.snoop_fanout::stdev           0.473068                       # Request fanout histogram
system.tol2bus.snoop_fanout::underflows             0      0.00%      0.00% # Request fanout histogram
system.tol2bus.snoop_fanout::0               24621139     72.95%     72.95% # Request fanout histogram
system.tol2bus.snoop_fanout::1                8766831     25.97%     98.92% # Request fanout histogram
system.tol2bus.snoop_fanout::2                 364055      1.08%    100.00% # Request fanout histogram
system.tol2bus.snoop_fanout::3                    209      0.00%    100.00% # Request fanout histogram
system.tol2bus.snoop_fanout::4                      0      0.00%    100.00% # Request fanout histogram
>>>>>>> 6be7a0502e78ebf80a09b838e3e9c0d652379c93
system.tol2bus.snoop_fanout::5                      0      0.00%    100.00% # Request fanout histogram
system.tol2bus.snoop_fanout::6                      0      0.00%    100.00% # Request fanout histogram
system.tol2bus.snoop_fanout::7                      0      0.00%    100.00% # Request fanout histogram
system.tol2bus.snoop_fanout::8                      0      0.00%    100.00% # Request fanout histogram
system.tol2bus.snoop_fanout::overflows              0      0.00%    100.00% # Request fanout histogram
system.tol2bus.snoop_fanout::min_value              0                       # Request fanout histogram
<<<<<<< HEAD
system.tol2bus.snoop_fanout::max_value              4                       # Request fanout histogram
system.tol2bus.snoop_fanout::total           30244066                       # Request fanout histogram
system.tol2bus.reqLayer0.occupancy        22387262431                       # Layer occupancy (ticks)
system.tol2bus.reqLayer0.utilization             16.1                       # Layer utilization (%)
system.tol2bus.respLayer5.occupancy        4092264362                       # Layer occupancy (ticks)
system.tol2bus.respLayer5.utilization             3.0                       # Layer utilization (%)
system.tol2bus.respLayer4.occupancy          41027651                       # Layer occupancy (ticks)
system.tol2bus.respLayer4.utilization             0.0                       # Layer utilization (%)
system.tol2bus.respLayer7.occupancy        4103707317                       # Layer occupancy (ticks)
system.tol2bus.respLayer7.utilization             3.0                       # Layer utilization (%)
system.tol2bus.respLayer6.occupancy          41045186                       # Layer occupancy (ticks)
system.tol2bus.respLayer6.utilization             0.0                       # Layer utilization (%)
system.tol2bus.respLayer1.occupancy        4348529948                       # Layer occupancy (ticks)
system.tol2bus.respLayer1.utilization             3.1                       # Layer utilization (%)
system.tol2bus.respLayer0.occupancy         182150790                       # Layer occupancy (ticks)
system.tol2bus.respLayer0.utilization             0.1                       # Layer utilization (%)
system.tol2bus.respLayer3.occupancy        4143704452                       # Layer occupancy (ticks)
system.tol2bus.respLayer3.utilization             3.0                       # Layer utilization (%)
system.tol2bus.respLayer2.occupancy          41606898                       # Layer occupancy (ticks)
system.tol2bus.respLayer2.utilization             0.0                       # Layer utilization (%)
system.tol2bus.snoopLayer0.occupancy            28519                       # Layer occupancy (ticks)
=======
system.tol2bus.snoop_fanout::max_value              3                       # Request fanout histogram
system.tol2bus.snoop_fanout::total           33752234                       # Request fanout histogram
system.tol2bus.reqLayer0.occupancy        22343566444                       # Layer occupancy (ticks)
system.tol2bus.reqLayer0.utilization             10.0                       # Layer utilization (%)
system.tol2bus.respLayer1.occupancy        8574450948                       # Layer occupancy (ticks)
system.tol2bus.respLayer1.utilization             3.9                       # Layer utilization (%)
system.tol2bus.respLayer0.occupancy         177884203                       # Layer occupancy (ticks)
system.tol2bus.respLayer0.utilization             0.1                       # Layer utilization (%)
system.tol2bus.respLayer3.occupancy        8210903804                       # Layer occupancy (ticks)
system.tol2bus.respLayer3.utilization             3.7                       # Layer utilization (%)
system.tol2bus.respLayer2.occupancy          36587577                       # Layer occupancy (ticks)
system.tol2bus.respLayer2.utilization             0.0                       # Layer utilization (%)
system.tol2bus.snoopLayer0.occupancy            10508                       # Layer occupancy (ticks)
>>>>>>> 6be7a0502e78ebf80a09b838e3e9c0d652379c93
system.tol2bus.snoopLayer0.utilization            0.0                       # Layer utilization (%)

---------- End Simulation Statistics   ----------
