
---------- Begin Simulation Statistics ----------
final_tick                               1839832386500                       # Number of ticks from beginning of simulation (restored from checkpoints and never reset)
host_inst_rate                                 104437                       # Simulator instruction rate (inst/s)
host_mem_usage                                 738824                       # Number of bytes of host memory used
host_op_rate                                   104774                       # Simulator op (including micro ops) rate (op/s)
host_seconds                                 22584.62                       # Real time elapsed on the host
host_tick_rate                               81463942                       # Simulator tick rate (ticks/s)
sim_freq                                 1000000000000                       # Frequency of simulated ticks
sim_insts                                  2358681497                       # Number of instructions simulated
sim_ops                                    2366291653                       # Number of ops (including micro ops) simulated
sim_seconds                                  1.839832                       # Number of seconds simulated
sim_ticks                                1839832386500                       # Number of ticks simulated
system.cpu0.branchPred.BTBCorrect                   0                       # Number of correct BTB predictions (this stat may not work properly.
system.cpu0.branchPred.BTBHitPct            86.935362                       # BTB Hit Percentage
system.cpu0.branchPred.BTBHits              288861065                       # Number of BTB hits
system.cpu0.branchPred.BTBLookups           332271078                       # Number of BTB lookups
system.cpu0.branchPred.RASInCorrect                 0                       # Number of incorrect RAS predictions.
system.cpu0.branchPred.condIncorrect         24977444                       # Number of conditional branches incorrect
system.cpu0.branchPred.condPredicted        450804038                       # Number of conditional branches predicted
system.cpu0.branchPred.indirectHits          42773787                       # Number of indirect target hits.
system.cpu0.branchPred.indirectLookups       43096661                       # Number of indirect predictor lookups.
system.cpu0.branchPred.indirectMisses          322874                       # Number of indirect misses.
system.cpu0.branchPred.lookups              580681774                       # Number of BP lookups
system.cpu0.branchPred.usedRAS                      0                       # Number of times the RAS was used to get a target.
system.cpu0.branchPredindirectMispredicted      3902473                       # Number of mispredicted indirect branches.
system.cpu0.commit.amos                       1901251                       # Number of atomic instructions committed
system.cpu0.commit.branchMispredicts         16332556                       # The number of times a branch was mispredicted
system.cpu0.commit.branches                 535062549                       # Number of branches committed
system.cpu0.commit.bw_lim_events             66012418                       # number cycles where commit BW limit reached
system.cpu0.commit.commitNonSpecStalls        5717983                       # The number of times commit has been forced to stall to communicate backwards
system.cpu0.commit.commitSquashedInsts      160814937                       # The number of squashed insts skipped by commit
system.cpu0.commit.committedInsts          2142665343                       # Number of instructions committed
system.cpu0.commit.committedOps            2144571877                       # Number of ops (including micro ops) committed
system.cpu0.commit.committed_per_cycle::samples   3373738456                       # Number of insts commited each cycle
system.cpu0.commit.committed_per_cycle::mean     0.635666                       # Number of insts commited each cycle
system.cpu0.commit.committed_per_cycle::stdev     1.426736                       # Number of insts commited each cycle
system.cpu0.commit.committed_per_cycle::underflows            0      0.00%      0.00% # Number of insts commited each cycle
system.cpu0.commit.committed_per_cycle::0   2363342966     70.05%     70.05% # Number of insts commited each cycle
system.cpu0.commit.committed_per_cycle::1    599292110     17.76%     87.81% # Number of insts commited each cycle
system.cpu0.commit.committed_per_cycle::2    137239609      4.07%     91.88% # Number of insts commited each cycle
system.cpu0.commit.committed_per_cycle::3    136845727      4.06%     95.94% # Number of insts commited each cycle
system.cpu0.commit.committed_per_cycle::4     43001763      1.27%     97.21% # Number of insts commited each cycle
system.cpu0.commit.committed_per_cycle::5     16084924      0.48%     97.69% # Number of insts commited each cycle
system.cpu0.commit.committed_per_cycle::6      3700221      0.11%     97.80% # Number of insts commited each cycle
system.cpu0.commit.committed_per_cycle::7      8218718      0.24%     98.04% # Number of insts commited each cycle
system.cpu0.commit.committed_per_cycle::8     66012418      1.96%    100.00% # Number of insts commited each cycle
system.cpu0.commit.committed_per_cycle::overflows            0      0.00%    100.00% # Number of insts commited each cycle
system.cpu0.commit.committed_per_cycle::min_value            0                       # Number of insts commited each cycle
system.cpu0.commit.committed_per_cycle::max_value            8                       # Number of insts commited each cycle
system.cpu0.commit.committed_per_cycle::total   3373738456                       # Number of insts commited each cycle
system.cpu0.commit.fp_insts                        50                       # Number of committed floating point instructions.
system.cpu0.commit.function_calls            43222527                       # Number of function calls committed.
system.cpu0.commit.int_insts               2072124310                       # Number of committed integer instructions.
system.cpu0.commit.loads                    668909108                       # Number of loads committed
system.cpu0.commit.membars                    3807639                       # Number of memory barriers committed
system.cpu0.commit.op_class_0::No_OpClass      3807645      0.18%      0.18% # Class of committed instruction
system.cpu0.commit.op_class_0::IntAlu      1188282167     55.41%     55.59% # Class of committed instruction
system.cpu0.commit.op_class_0::IntMult       18318163      0.85%     56.44% # Class of committed instruction
system.cpu0.commit.op_class_0::IntDiv         3801411      0.18%     56.62% # Class of committed instruction
system.cpu0.commit.op_class_0::FloatAdd             0      0.00%     56.62% # Class of committed instruction
system.cpu0.commit.op_class_0::FloatCmp             4      0.00%     56.62% # Class of committed instruction
system.cpu0.commit.op_class_0::FloatCvt            12      0.00%     56.62% # Class of committed instruction
system.cpu0.commit.op_class_0::FloatMult            0      0.00%     56.62% # Class of committed instruction
system.cpu0.commit.op_class_0::FloatMultAcc            0      0.00%     56.62% # Class of committed instruction
system.cpu0.commit.op_class_0::FloatDiv             2      0.00%     56.62% # Class of committed instruction
system.cpu0.commit.op_class_0::FloatMisc            4      0.00%     56.62% # Class of committed instruction
system.cpu0.commit.op_class_0::FloatSqrt            0      0.00%     56.62% # Class of committed instruction
system.cpu0.commit.op_class_0::SimdAdd              0      0.00%     56.62% # Class of committed instruction
system.cpu0.commit.op_class_0::SimdAddAcc            0      0.00%     56.62% # Class of committed instruction
system.cpu0.commit.op_class_0::SimdAlu              0      0.00%     56.62% # Class of committed instruction
system.cpu0.commit.op_class_0::SimdCmp              0      0.00%     56.62% # Class of committed instruction
system.cpu0.commit.op_class_0::SimdCvt              0      0.00%     56.62% # Class of committed instruction
system.cpu0.commit.op_class_0::SimdMisc             0      0.00%     56.62% # Class of committed instruction
system.cpu0.commit.op_class_0::SimdMult             0      0.00%     56.62% # Class of committed instruction
system.cpu0.commit.op_class_0::SimdMultAcc            0      0.00%     56.62% # Class of committed instruction
system.cpu0.commit.op_class_0::SimdShift            0      0.00%     56.62% # Class of committed instruction
system.cpu0.commit.op_class_0::SimdShiftAcc            0      0.00%     56.62% # Class of committed instruction
system.cpu0.commit.op_class_0::SimdDiv              0      0.00%     56.62% # Class of committed instruction
system.cpu0.commit.op_class_0::SimdSqrt             0      0.00%     56.62% # Class of committed instruction
system.cpu0.commit.op_class_0::SimdFloatAdd            0      0.00%     56.62% # Class of committed instruction
system.cpu0.commit.op_class_0::SimdFloatAlu            0      0.00%     56.62% # Class of committed instruction
system.cpu0.commit.op_class_0::SimdFloatCmp            0      0.00%     56.62% # Class of committed instruction
system.cpu0.commit.op_class_0::SimdFloatCvt            0      0.00%     56.62% # Class of committed instruction
system.cpu0.commit.op_class_0::SimdFloatDiv            0      0.00%     56.62% # Class of committed instruction
system.cpu0.commit.op_class_0::SimdFloatMisc            0      0.00%     56.62% # Class of committed instruction
system.cpu0.commit.op_class_0::SimdFloatMult            0      0.00%     56.62% # Class of committed instruction
system.cpu0.commit.op_class_0::SimdFloatMultAcc            0      0.00%     56.62% # Class of committed instruction
system.cpu0.commit.op_class_0::SimdFloatSqrt            0      0.00%     56.62% # Class of committed instruction
system.cpu0.commit.op_class_0::SimdReduceAdd            0      0.00%     56.62% # Class of committed instruction
system.cpu0.commit.op_class_0::SimdReduceAlu            0      0.00%     56.62% # Class of committed instruction
system.cpu0.commit.op_class_0::SimdReduceCmp            0      0.00%     56.62% # Class of committed instruction
system.cpu0.commit.op_class_0::SimdFloatReduceAdd            0      0.00%     56.62% # Class of committed instruction
system.cpu0.commit.op_class_0::SimdFloatReduceCmp            0      0.00%     56.62% # Class of committed instruction
system.cpu0.commit.op_class_0::SimdAes              0      0.00%     56.62% # Class of committed instruction
system.cpu0.commit.op_class_0::SimdAesMix            0      0.00%     56.62% # Class of committed instruction
system.cpu0.commit.op_class_0::SimdSha1Hash            0      0.00%     56.62% # Class of committed instruction
system.cpu0.commit.op_class_0::SimdSha1Hash2            0      0.00%     56.62% # Class of committed instruction
system.cpu0.commit.op_class_0::SimdSha256Hash            0      0.00%     56.62% # Class of committed instruction
system.cpu0.commit.op_class_0::SimdSha256Hash2            0      0.00%     56.62% # Class of committed instruction
system.cpu0.commit.op_class_0::SimdShaSigma2            0      0.00%     56.62% # Class of committed instruction
system.cpu0.commit.op_class_0::SimdShaSigma3            0      0.00%     56.62% # Class of committed instruction
system.cpu0.commit.op_class_0::SimdPredAlu            0      0.00%     56.62% # Class of committed instruction
system.cpu0.commit.op_class_0::MemRead      670810351     31.28%     87.90% # Class of committed instruction
system.cpu0.commit.op_class_0::MemWrite     259552090     12.10%    100.00% # Class of committed instruction
system.cpu0.commit.op_class_0::FloatMemRead            8      0.00%    100.00% # Class of committed instruction
system.cpu0.commit.op_class_0::FloatMemWrite           20      0.00%    100.00% # Class of committed instruction
system.cpu0.commit.op_class_0::IprAccess            0      0.00%    100.00% # Class of committed instruction
system.cpu0.commit.op_class_0::InstPrefetch            0      0.00%    100.00% # Class of committed instruction
system.cpu0.commit.op_class_0::total       2144571877                       # Class of committed instruction
system.cpu0.commit.refs                     930362469                       # Number of memory references committed
system.cpu0.commit.swp_count                        0                       # Number of s/w prefetches committed
system.cpu0.commit.vec_insts                        0                       # Number of committed Vector instructions.
system.cpu0.committedInsts                 2142665343                       # Number of Instructions Simulated
system.cpu0.committedOps                   2144571877                       # Number of Ops (including micro ops) Simulated
system.cpu0.cpi                              1.708433                       # CPI: Cycles Per Instruction
system.cpu0.cpi_total                        1.708433                       # CPI: Total CPI of All Threads
system.cpu0.decode.BlockedCycles            463754100                       # Number of cycles decode is blocked
system.cpu0.decode.BranchMispred              8650728                       # Number of times decode detected a branch misprediction
system.cpu0.decode.BranchResolved           283962483                       # Number of times decode resolved a branch
system.cpu0.decode.DecodedInsts            2336701538                       # Number of instructions handled by decode
system.cpu0.decode.IdleCycles              1296504945                       # Number of cycles decode is idle
system.cpu0.decode.RunCycles               1620221784                       # Number of cycles decode is running
system.cpu0.decode.SquashCycles              16348618                       # Number of cycles decode is squashing
system.cpu0.decode.SquashedInsts             26795818                       # Number of squashed instructions handled by decode
system.cpu0.decode.UnblockCycles              8407174                       # Number of cycles decode is unblocking
system.cpu0.dtb.accesses                            0                       # DTB accesses
system.cpu0.dtb.hits                                0                       # DTB hits
system.cpu0.dtb.misses                              0                       # DTB misses
system.cpu0.dtb.read_accesses                       0                       # DTB read accesses
system.cpu0.dtb.read_hits                           0                       # DTB read hits
system.cpu0.dtb.read_misses                         0                       # DTB read misses
system.cpu0.dtb.write_accesses                      0                       # DTB write accesses
system.cpu0.dtb.write_hits                          0                       # DTB write hits
system.cpu0.dtb.write_misses                        0                       # DTB write misses
system.cpu0.fetch.Branches                  580681774                       # Number of branches that fetch encountered
system.cpu0.fetch.CacheLines                392916720                       # Number of cache lines fetched
system.cpu0.fetch.Cycles                   2106071739                       # Number of cycles fetch has run and was not squashing or blocked
system.cpu0.fetch.IcacheSquashes             10372540                       # Number of outstanding Icache misses that were squashed
system.cpu0.fetch.IcacheWaitRetryStallCycles           86                       # Number of stall cycles due to full MSHR
system.cpu0.fetch.Insts                    2391691731                       # Number of instructions fetch has processed
system.cpu0.fetch.MiscStallCycles                  31                       # Number of cycles fetch has spent waiting on interrupts, or bad addresses, or out of MSHRs
system.cpu0.fetch.PendingTrapStallCycles          143                       # Number of stall cycles due to pending traps
system.cpu0.fetch.SquashCycles               49987056                       # Number of cycles fetch has spent squashing
system.cpu0.fetch.branchRate                 0.158630                       # Number of branch fetches per cycle
system.cpu0.fetch.icacheStallCycles        1274171094                       # Number of cycles fetch is stalled on an Icache miss
system.cpu0.fetch.predictedBranches         331634852                       # Number of branches that fetch has predicted taken
system.cpu0.fetch.rate                       0.653361                       # Number of inst fetches per cycle
system.cpu0.fetch.rateDist::samples        3405236621                       # Number of instructions fetched each cycle (Total)
system.cpu0.fetch.rateDist::mean             0.702917                       # Number of instructions fetched each cycle (Total)
system.cpu0.fetch.rateDist::stdev            0.921736                       # Number of instructions fetched each cycle (Total)
system.cpu0.fetch.rateDist::underflows              0      0.00%      0.00% # Number of instructions fetched each cycle (Total)
system.cpu0.fetch.rateDist::0              1720521922     50.53%     50.53% # Number of instructions fetched each cycle (Total)
system.cpu0.fetch.rateDist::1              1248648088     36.67%     87.19% # Number of instructions fetched each cycle (Total)
system.cpu0.fetch.rateDist::2               227572730      6.68%     93.88% # Number of instructions fetched each cycle (Total)
system.cpu0.fetch.rateDist::3               165875806      4.87%     98.75% # Number of instructions fetched each cycle (Total)
system.cpu0.fetch.rateDist::4                32749562      0.96%     99.71% # Number of instructions fetched each cycle (Total)
system.cpu0.fetch.rateDist::5                 5647824      0.17%     99.88% # Number of instructions fetched each cycle (Total)
system.cpu0.fetch.rateDist::6                  412292      0.01%     99.89% # Number of instructions fetched each cycle (Total)
system.cpu0.fetch.rateDist::7                     496      0.00%     99.89% # Number of instructions fetched each cycle (Total)
system.cpu0.fetch.rateDist::8                 3807901      0.11%    100.00% # Number of instructions fetched each cycle (Total)
system.cpu0.fetch.rateDist::overflows               0      0.00%    100.00% # Number of instructions fetched each cycle (Total)
system.cpu0.fetch.rateDist::min_value               0                       # Number of instructions fetched each cycle (Total)
system.cpu0.fetch.rateDist::max_value               8                       # Number of instructions fetched each cycle (Total)
system.cpu0.fetch.rateDist::total          3405236621                       # Number of instructions fetched each cycle (Total)
system.cpu0.fp_regfile_reads                       44                       # number of floating regfile reads
system.cpu0.fp_regfile_writes                      23                       # number of floating regfile writes
system.cpu0.idleCycles                      255363395                       # Total number of cycles that the CPU has spent unscheduled due to idling
system.cpu0.iew.branchMispredicts            16550010                       # Number of branch mispredicts detected at execute
system.cpu0.iew.exec_branches               557730764                       # Number of branches executed
system.cpu0.iew.exec_nop                            0                       # number of nop insts executed
system.cpu0.iew.exec_rate                    0.627403                       # Inst execution rate
system.cpu0.iew.exec_refs                  1025329853                       # number of memory reference insts executed
system.cpu0.iew.exec_stores                 283581061                       # Number of stores executed
system.cpu0.iew.exec_swp                            0                       # number of swp insts executed
system.cpu0.iew.iewBlockCycles              345162263                       # Number of cycles IEW is blocking
system.cpu0.iew.iewDispLoadInsts            737710889                       # Number of dispatched load instructions
system.cpu0.iew.iewDispNonSpecInsts           1910580                       # Number of dispatched non-speculative instructions
system.cpu0.iew.iewDispSquashedInsts          7692655                       # Number of squashed instructions skipped by dispatch
system.cpu0.iew.iewDispStoreInsts           285801438                       # Number of dispatched store instructions
system.cpu0.iew.iewDispatchedInsts         2305350063                       # Number of instructions dispatched to IQ
system.cpu0.iew.iewExecLoadInsts            741748792                       # Number of load instructions executed
system.cpu0.iew.iewExecSquashedInsts          8570389                       # Number of squashed instructions skipped in execute
system.cpu0.iew.iewExecutedInsts           2296672763                       # Number of executed instructions
system.cpu0.iew.iewIQFullEvents               1780452                       # Number of times the IQ has become full, causing a stall
system.cpu0.iew.iewIdleCycles                       0                       # Number of cycles IEW is idle
system.cpu0.iew.iewLSQFullEvents             10560565                       # Number of times the LSQ has become full, causing a stall
system.cpu0.iew.iewSquashCycles              16348618                       # Number of cycles IEW is squashing
system.cpu0.iew.iewUnblockCycles             14419240                       # Number of cycles IEW is unblocking
system.cpu0.iew.lsq.thread0.blockedLoads            0                       # Number of blocked loads due to partial load-store forwarding
system.cpu0.iew.lsq.thread0.cacheBlocked       257988                       # Number of times an access to memory failed due to the cache being blocked
system.cpu0.iew.lsq.thread0.forwLoads        38275347                       # Number of loads that had data forwarded from stores
system.cpu0.iew.lsq.thread0.ignoredResponses        88108                       # Number of memory responses ignored because the instruction is squashed
system.cpu0.iew.lsq.thread0.invAddrLoads            0                       # Number of loads ignored due to an invalid address
system.cpu0.iew.lsq.thread0.invAddrSwpfs            0                       # Number of software prefetches ignored due to an invalid address
system.cpu0.iew.lsq.thread0.memOrderViolation        17396                       # Number of memory ordering violations
system.cpu0.iew.lsq.thread0.rescheduledLoads     12863492                       # Number of loads that were rescheduled
system.cpu0.iew.lsq.thread0.squashedLoads     68801781                       # Number of loads squashed
system.cpu0.iew.lsq.thread0.squashedStores     24348077                       # Number of stores squashed
system.cpu0.iew.memOrderViolationEvents         17396                       # Number of memory order violations
system.cpu0.iew.predictedNotTakenIncorrect      1910680                       # Number of branches that were predicted not taken incorrectly
system.cpu0.iew.predictedTakenIncorrect      14639330                       # Number of branches that were predicted taken incorrectly
system.cpu0.iew.wb_consumers               1022352869                       # num instructions consuming a value
system.cpu0.iew.wb_count                   2277722074                       # cumulative count of insts written-back
system.cpu0.iew.wb_fanout                    0.838830                       # average fanout of values written-back
system.cpu0.iew.wb_producers                857580610                       # num instructions producing a value
system.cpu0.iew.wb_rate                      0.622226                       # insts written-back per cycle
system.cpu0.iew.wb_sent                    2278117198                       # cumulative count of insts sent to commit
system.cpu0.int_regfile_reads              2799367237                       # number of integer regfile reads
system.cpu0.int_regfile_writes             1457275971                       # number of integer regfile writes
system.cpu0.ipc                              0.585332                       # IPC: Instructions Per Cycle
system.cpu0.ipc_total                        0.585332                       # IPC: Total IPC of All Threads
system.cpu0.iq.FU_type_0::No_OpClass          3810706      0.17%      0.17% # Type of FU issued
system.cpu0.iq.FU_type_0::IntAlu           1250572990     54.25%     54.41% # Type of FU issued
system.cpu0.iq.FU_type_0::IntMult            18650122      0.81%     55.22% # Type of FU issued
system.cpu0.iq.FU_type_0::IntDiv              3802496      0.16%     55.39% # Type of FU issued
system.cpu0.iq.FU_type_0::FloatAdd                  0      0.00%     55.39% # Type of FU issued
system.cpu0.iq.FU_type_0::FloatCmp                  4      0.00%     55.39% # Type of FU issued
system.cpu0.iq.FU_type_0::FloatCvt                 12      0.00%     55.39% # Type of FU issued
system.cpu0.iq.FU_type_0::FloatMult                 0      0.00%     55.39% # Type of FU issued
system.cpu0.iq.FU_type_0::FloatMultAcc              0      0.00%     55.39% # Type of FU issued
system.cpu0.iq.FU_type_0::FloatDiv                  2      0.00%     55.39% # Type of FU issued
system.cpu0.iq.FU_type_0::FloatMisc                 4      0.00%     55.39% # Type of FU issued
system.cpu0.iq.FU_type_0::FloatSqrt                 0      0.00%     55.39% # Type of FU issued
system.cpu0.iq.FU_type_0::SimdAdd                   0      0.00%     55.39% # Type of FU issued
system.cpu0.iq.FU_type_0::SimdAddAcc                0      0.00%     55.39% # Type of FU issued
system.cpu0.iq.FU_type_0::SimdAlu                   0      0.00%     55.39% # Type of FU issued
system.cpu0.iq.FU_type_0::SimdCmp                   0      0.00%     55.39% # Type of FU issued
system.cpu0.iq.FU_type_0::SimdCvt                   0      0.00%     55.39% # Type of FU issued
system.cpu0.iq.FU_type_0::SimdMisc                  0      0.00%     55.39% # Type of FU issued
system.cpu0.iq.FU_type_0::SimdMult                  0      0.00%     55.39% # Type of FU issued
system.cpu0.iq.FU_type_0::SimdMultAcc               0      0.00%     55.39% # Type of FU issued
system.cpu0.iq.FU_type_0::SimdShift                 0      0.00%     55.39% # Type of FU issued
system.cpu0.iq.FU_type_0::SimdShiftAcc              0      0.00%     55.39% # Type of FU issued
system.cpu0.iq.FU_type_0::SimdDiv                   0      0.00%     55.39% # Type of FU issued
system.cpu0.iq.FU_type_0::SimdSqrt                  0      0.00%     55.39% # Type of FU issued
system.cpu0.iq.FU_type_0::SimdFloatAdd              0      0.00%     55.39% # Type of FU issued
system.cpu0.iq.FU_type_0::SimdFloatAlu              0      0.00%     55.39% # Type of FU issued
system.cpu0.iq.FU_type_0::SimdFloatCmp              0      0.00%     55.39% # Type of FU issued
system.cpu0.iq.FU_type_0::SimdFloatCvt              0      0.00%     55.39% # Type of FU issued
system.cpu0.iq.FU_type_0::SimdFloatDiv              0      0.00%     55.39% # Type of FU issued
system.cpu0.iq.FU_type_0::SimdFloatMisc             0      0.00%     55.39% # Type of FU issued
system.cpu0.iq.FU_type_0::SimdFloatMult             0      0.00%     55.39% # Type of FU issued
system.cpu0.iq.FU_type_0::SimdFloatMultAcc            0      0.00%     55.39% # Type of FU issued
system.cpu0.iq.FU_type_0::SimdFloatSqrt             0      0.00%     55.39% # Type of FU issued
system.cpu0.iq.FU_type_0::SimdReduceAdd             0      0.00%     55.39% # Type of FU issued
system.cpu0.iq.FU_type_0::SimdReduceAlu             0      0.00%     55.39% # Type of FU issued
system.cpu0.iq.FU_type_0::SimdReduceCmp             0      0.00%     55.39% # Type of FU issued
system.cpu0.iq.FU_type_0::SimdFloatReduceAdd            0      0.00%     55.39% # Type of FU issued
system.cpu0.iq.FU_type_0::SimdFloatReduceCmp            0      0.00%     55.39% # Type of FU issued
system.cpu0.iq.FU_type_0::SimdAes                   0      0.00%     55.39% # Type of FU issued
system.cpu0.iq.FU_type_0::SimdAesMix                0      0.00%     55.39% # Type of FU issued
system.cpu0.iq.FU_type_0::SimdSha1Hash              0      0.00%     55.39% # Type of FU issued
system.cpu0.iq.FU_type_0::SimdSha1Hash2             0      0.00%     55.39% # Type of FU issued
system.cpu0.iq.FU_type_0::SimdSha256Hash            0      0.00%     55.39% # Type of FU issued
system.cpu0.iq.FU_type_0::SimdSha256Hash2            0      0.00%     55.39% # Type of FU issued
system.cpu0.iq.FU_type_0::SimdShaSigma2             0      0.00%     55.39% # Type of FU issued
system.cpu0.iq.FU_type_0::SimdShaSigma3             0      0.00%     55.39% # Type of FU issued
system.cpu0.iq.FU_type_0::SimdPredAlu               0      0.00%     55.39% # Type of FU issued
system.cpu0.iq.FU_type_0::MemRead           746093161     32.37%     87.75% # Type of FU issued
system.cpu0.iq.FU_type_0::MemWrite          282313626     12.25%    100.00% # Type of FU issued
system.cpu0.iq.FU_type_0::FloatMemRead              9      0.00%    100.00% # Type of FU issued
system.cpu0.iq.FU_type_0::FloatMemWrite            20      0.00%    100.00% # Type of FU issued
system.cpu0.iq.FU_type_0::IprAccess                 0      0.00%    100.00% # Type of FU issued
system.cpu0.iq.FU_type_0::InstPrefetch              0      0.00%    100.00% # Type of FU issued
system.cpu0.iq.FU_type_0::total            2305243152                       # Type of FU issued
system.cpu0.iq.fp_alu_accesses                     55                       # Number of floating point alu accesses
system.cpu0.iq.fp_inst_queue_reads                106                       # Number of floating instruction queue reads
system.cpu0.iq.fp_inst_queue_wakeup_accesses           51                       # Number of floating instruction queue wakeup accesses
system.cpu0.iq.fp_inst_queue_writes                80                       # Number of floating instruction queue writes
system.cpu0.iq.fu_busy_cnt                    3051135                       # FU busy when requested
system.cpu0.iq.fu_busy_rate                  0.001324                       # FU busy rate (busy events/executed inst)
system.cpu0.iq.fu_full::No_OpClass                  0      0.00%      0.00% # attempts to use FU when none available
system.cpu0.iq.fu_full::IntAlu                 575868     18.87%     18.87% # attempts to use FU when none available
system.cpu0.iq.fu_full::IntMult                    28      0.00%     18.87% # attempts to use FU when none available
system.cpu0.iq.fu_full::IntDiv                      0      0.00%     18.87% # attempts to use FU when none available
system.cpu0.iq.fu_full::FloatAdd                    0      0.00%     18.87% # attempts to use FU when none available
system.cpu0.iq.fu_full::FloatCmp                    0      0.00%     18.87% # attempts to use FU when none available
system.cpu0.iq.fu_full::FloatCvt                    0      0.00%     18.87% # attempts to use FU when none available
system.cpu0.iq.fu_full::FloatMult                   0      0.00%     18.87% # attempts to use FU when none available
system.cpu0.iq.fu_full::FloatMultAcc                0      0.00%     18.87% # attempts to use FU when none available
system.cpu0.iq.fu_full::FloatDiv                    0      0.00%     18.87% # attempts to use FU when none available
system.cpu0.iq.fu_full::FloatMisc                   0      0.00%     18.87% # attempts to use FU when none available
system.cpu0.iq.fu_full::FloatSqrt                   0      0.00%     18.87% # attempts to use FU when none available
system.cpu0.iq.fu_full::SimdAdd                     0      0.00%     18.87% # attempts to use FU when none available
system.cpu0.iq.fu_full::SimdAddAcc                  0      0.00%     18.87% # attempts to use FU when none available
system.cpu0.iq.fu_full::SimdAlu                     0      0.00%     18.87% # attempts to use FU when none available
system.cpu0.iq.fu_full::SimdCmp                     0      0.00%     18.87% # attempts to use FU when none available
system.cpu0.iq.fu_full::SimdCvt                     0      0.00%     18.87% # attempts to use FU when none available
system.cpu0.iq.fu_full::SimdMisc                    0      0.00%     18.87% # attempts to use FU when none available
system.cpu0.iq.fu_full::SimdMult                    0      0.00%     18.87% # attempts to use FU when none available
system.cpu0.iq.fu_full::SimdMultAcc                 0      0.00%     18.87% # attempts to use FU when none available
system.cpu0.iq.fu_full::SimdShift                   0      0.00%     18.87% # attempts to use FU when none available
system.cpu0.iq.fu_full::SimdShiftAcc                0      0.00%     18.87% # attempts to use FU when none available
system.cpu0.iq.fu_full::SimdDiv                     0      0.00%     18.87% # attempts to use FU when none available
system.cpu0.iq.fu_full::SimdSqrt                    0      0.00%     18.87% # attempts to use FU when none available
system.cpu0.iq.fu_full::SimdFloatAdd                0      0.00%     18.87% # attempts to use FU when none available
system.cpu0.iq.fu_full::SimdFloatAlu                0      0.00%     18.87% # attempts to use FU when none available
system.cpu0.iq.fu_full::SimdFloatCmp                0      0.00%     18.87% # attempts to use FU when none available
system.cpu0.iq.fu_full::SimdFloatCvt                0      0.00%     18.87% # attempts to use FU when none available
system.cpu0.iq.fu_full::SimdFloatDiv                0      0.00%     18.87% # attempts to use FU when none available
system.cpu0.iq.fu_full::SimdFloatMisc               0      0.00%     18.87% # attempts to use FU when none available
system.cpu0.iq.fu_full::SimdFloatMult               0      0.00%     18.87% # attempts to use FU when none available
system.cpu0.iq.fu_full::SimdFloatMultAcc            0      0.00%     18.87% # attempts to use FU when none available
system.cpu0.iq.fu_full::SimdFloatSqrt               0      0.00%     18.87% # attempts to use FU when none available
system.cpu0.iq.fu_full::SimdReduceAdd               0      0.00%     18.87% # attempts to use FU when none available
system.cpu0.iq.fu_full::SimdReduceAlu               0      0.00%     18.87% # attempts to use FU when none available
system.cpu0.iq.fu_full::SimdReduceCmp               0      0.00%     18.87% # attempts to use FU when none available
system.cpu0.iq.fu_full::SimdFloatReduceAdd            0      0.00%     18.87% # attempts to use FU when none available
system.cpu0.iq.fu_full::SimdFloatReduceCmp            0      0.00%     18.87% # attempts to use FU when none available
system.cpu0.iq.fu_full::SimdAes                     0      0.00%     18.87% # attempts to use FU when none available
system.cpu0.iq.fu_full::SimdAesMix                  0      0.00%     18.87% # attempts to use FU when none available
system.cpu0.iq.fu_full::SimdSha1Hash                0      0.00%     18.87% # attempts to use FU when none available
system.cpu0.iq.fu_full::SimdSha1Hash2               0      0.00%     18.87% # attempts to use FU when none available
system.cpu0.iq.fu_full::SimdSha256Hash              0      0.00%     18.87% # attempts to use FU when none available
system.cpu0.iq.fu_full::SimdSha256Hash2             0      0.00%     18.87% # attempts to use FU when none available
system.cpu0.iq.fu_full::SimdShaSigma2               0      0.00%     18.87% # attempts to use FU when none available
system.cpu0.iq.fu_full::SimdShaSigma3               0      0.00%     18.87% # attempts to use FU when none available
system.cpu0.iq.fu_full::SimdPredAlu                 0      0.00%     18.87% # attempts to use FU when none available
system.cpu0.iq.fu_full::MemRead               1949299     63.89%     82.76% # attempts to use FU when none available
system.cpu0.iq.fu_full::MemWrite               525936     17.24%    100.00% # attempts to use FU when none available
system.cpu0.iq.fu_full::FloatMemRead                0      0.00%    100.00% # attempts to use FU when none available
system.cpu0.iq.fu_full::FloatMemWrite               4      0.00%    100.00% # attempts to use FU when none available
system.cpu0.iq.fu_full::IprAccess                   0      0.00%    100.00% # attempts to use FU when none available
system.cpu0.iq.fu_full::InstPrefetch                0      0.00%    100.00% # attempts to use FU when none available
system.cpu0.iq.int_alu_accesses            2304483526                       # Number of integer alu accesses
system.cpu0.iq.int_inst_queue_reads        8018967605                       # Number of integer instruction queue reads
system.cpu0.iq.int_inst_queue_wakeup_accesses   2277722023                       # Number of integer instruction queue wakeup accesses
system.cpu0.iq.int_inst_queue_writes       2466144116                       # Number of integer instruction queue writes
system.cpu0.iq.iqInstsAdded                2299631610                       # Number of instructions added to the IQ (excludes non-spec)
system.cpu0.iq.iqInstsIssued               2305243152                       # Number of instructions issued
system.cpu0.iq.iqNonSpecInstsAdded            5718453                       # Number of non-speculative instructions added to the IQ
system.cpu0.iq.iqSquashedInstsExamined      160778183                       # Number of squashed instructions iterated over during squash; mainly for profiling
system.cpu0.iq.iqSquashedInstsIssued           193651                       # Number of squashed instructions issued
system.cpu0.iq.iqSquashedNonSpecRemoved           470                       # Number of squashed non-spec instructions that were removed
system.cpu0.iq.iqSquashedOperandsExamined     28170947                       # Number of squashed operands that are examined and possibly removed from graph
system.cpu0.iq.issued_per_cycle::samples   3405236621                       # Number of insts issued each cycle
system.cpu0.iq.issued_per_cycle::mean        0.676970                       # Number of insts issued each cycle
system.cpu0.iq.issued_per_cycle::stdev       0.871450                       # Number of insts issued each cycle
system.cpu0.iq.issued_per_cycle::underflows            0      0.00%      0.00% # Number of insts issued each cycle
system.cpu0.iq.issued_per_cycle::0         1804605709     53.00%     53.00% # Number of insts issued each cycle
system.cpu0.iq.issued_per_cycle::1         1072364912     31.49%     84.49% # Number of insts issued each cycle
system.cpu0.iq.issued_per_cycle::2          381190663     11.19%     95.68% # Number of insts issued each cycle
system.cpu0.iq.issued_per_cycle::3          124313149      3.65%     99.33% # Number of insts issued each cycle
system.cpu0.iq.issued_per_cycle::4           19110161      0.56%     99.89% # Number of insts issued each cycle
system.cpu0.iq.issued_per_cycle::5            1624983      0.05%     99.94% # Number of insts issued each cycle
system.cpu0.iq.issued_per_cycle::6            1454070      0.04%     99.98% # Number of insts issued each cycle
system.cpu0.iq.issued_per_cycle::7             316304      0.01%     99.99% # Number of insts issued each cycle
system.cpu0.iq.issued_per_cycle::8             256670      0.01%    100.00% # Number of insts issued each cycle
system.cpu0.iq.issued_per_cycle::overflows            0      0.00%    100.00% # Number of insts issued each cycle
system.cpu0.iq.issued_per_cycle::min_value            0                       # Number of insts issued each cycle
system.cpu0.iq.issued_per_cycle::max_value            8                       # Number of insts issued each cycle
system.cpu0.iq.issued_per_cycle::total     3405236621                       # Number of insts issued each cycle
system.cpu0.iq.rate                          0.629745                       # Inst issue rate
system.cpu0.iq.vec_alu_accesses                     0                       # Number of vector alu accesses
system.cpu0.iq.vec_inst_queue_reads                 0                       # Number of vector instruction queue reads
system.cpu0.iq.vec_inst_queue_wakeup_accesses            0                       # Number of vector instruction queue wakeup accesses
system.cpu0.iq.vec_inst_queue_writes                0                       # Number of vector instruction queue writes
system.cpu0.itb.accesses                            0                       # DTB accesses
system.cpu0.itb.hits                                0                       # DTB hits
system.cpu0.itb.misses                              0                       # DTB misses
system.cpu0.itb.read_accesses                       0                       # DTB read accesses
system.cpu0.itb.read_hits                           0                       # DTB read hits
system.cpu0.itb.read_misses                         0                       # DTB read misses
system.cpu0.itb.write_accesses                      0                       # DTB write accesses
system.cpu0.itb.write_hits                          0                       # DTB write hits
system.cpu0.itb.write_misses                        0                       # DTB write misses
system.cpu0.memDep0.conflictingLoads         25979258                       # Number of conflicting loads.
system.cpu0.memDep0.conflictingStores         4044052                       # Number of conflicting stores.
system.cpu0.memDep0.insertedLoads           737710889                       # Number of loads inserted to the mem dependence unit.
system.cpu0.memDep0.insertedStores          285801438                       # Number of stores inserted to the mem dependence unit.
system.cpu0.misc_regfile_reads                   3065                       # number of misc regfile reads
system.cpu0.misc_regfile_writes                    22                       # number of misc regfile writes
system.cpu0.numCycles                      3660600016                       # number of cpu cycles simulated
system.cpu0.numWorkItemsCompleted                   0                       # number of work items this cpu completed
system.cpu0.numWorkItemsStarted                     0                       # number of work items this cpu started
system.cpu0.quiesceCycles                    19064783                       # Total number of cycles that CPU has spent quiesced or waiting for an interrupt
system.cpu0.rename.BlockCycles              374950953                       # Number of cycles rename is blocking
system.cpu0.rename.CommittedMaps           1365831198                       # Number of HB maps that are committed
system.cpu0.rename.IQFullEvents              14174481                       # Number of times rename has blocked due to IQ full
system.cpu0.rename.IdleCycles              1314127252                       # Number of cycles rename is idle
system.cpu0.rename.LQFullEvents              33966456                       # Number of times rename has blocked due to LQ full
system.cpu0.rename.ROBFullEvents                47685                       # Number of times rename has blocked due to ROB full
system.cpu0.rename.RenameLookups           2840393306                       # Number of register rename lookups that rename has made
system.cpu0.rename.RenamedInsts            2326913502                       # Number of instructions processed by rename
system.cpu0.rename.RenamedOperands         1494257478                       # Number of destination operands rename has renamed
system.cpu0.rename.RunCycles               1610056060                       # Number of cycles rename is running
system.cpu0.rename.SQFullEvents              41713918                       # Number of times rename has blocked due to SQ full
system.cpu0.rename.SquashCycles              16348618                       # Number of cycles rename is squashing
system.cpu0.rename.UnblockCycles             89511276                       # Number of cycles rename is unblocking
system.cpu0.rename.UndoneMaps               128426276                       # Number of HB maps that are undone due to squashing
system.cpu0.rename.fp_rename_lookups               44                       # Number of floating rename lookups
system.cpu0.rename.int_rename_lookups      2840393262                       # Number of integer rename lookups
system.cpu0.rename.serializeStallCycles        242462                       # count of cycles rename stalled for serializing inst
system.cpu0.rename.serializingInsts              9237                       # count of serializing insts renamed
system.cpu0.rename.skidInsts                 29109886                       # count of insts added to the skid buffer
system.cpu0.rename.tempSerializingInsts          9217                       # count of temporary serializing insts renamed
system.cpu0.rob.rob_reads                  5613073579                       # The number of ROB reads
system.cpu0.rob.rob_writes                 4642301874                       # The number of ROB writes
system.cpu0.timesIdled                       41804188                       # Number of times that the entire CPU went into an idle state and unscheduled itself
system.cpu0.workload.numSyscalls                 3032                       # Number of system calls
system.cpu1.branchPred.BTBCorrect                   0                       # Number of correct BTB predictions (this stat may not work properly.
system.cpu1.branchPred.BTBHitPct            94.133997                       # BTB Hit Percentage
system.cpu1.branchPred.BTBHits               14169068                       # Number of BTB hits
system.cpu1.branchPred.BTBLookups            15052020                       # Number of BTB lookups
system.cpu1.branchPred.RASInCorrect                 0                       # Number of incorrect RAS predictions.
system.cpu1.branchPred.condIncorrect          1724051                       # Number of conditional branches incorrect
system.cpu1.branchPred.condPredicted         22840626                       # Number of conditional branches predicted
system.cpu1.branchPred.indirectHits            670553                       # Number of indirect target hits.
system.cpu1.branchPred.indirectLookups         681070                       # Number of indirect predictor lookups.
system.cpu1.branchPred.indirectMisses           10517                       # Number of indirect misses.
system.cpu1.branchPred.lookups               26086143                       # Number of BP lookups
system.cpu1.branchPred.usedRAS                      0                       # Number of times the RAS was used to get a target.
system.cpu1.branchPredindirectMispredicted        60163                       # Number of mispredicted indirect branches.
system.cpu1.commit.amos                       1901000                       # Number of atomic instructions committed
system.cpu1.commit.branchMispredicts          1450277                       # The number of times a branch was mispredicted
system.cpu1.commit.branches                  20330734                       # Number of branches committed
system.cpu1.commit.bw_lim_events              1964078                       # number cycles where commit BW limit reached
system.cpu1.commit.commitNonSpecStalls        5703699                       # The number of times commit has been forced to stall to communicate backwards
system.cpu1.commit.commitSquashedInsts       12851112                       # The number of squashed insts skipped by commit
system.cpu1.commit.committedInsts            84630190                       # Number of instructions committed
system.cpu1.commit.committedOps              86531378                       # Number of ops (including micro ops) committed
system.cpu1.commit.committed_per_cycle::samples    456541928                       # Number of insts commited each cycle
system.cpu1.commit.committed_per_cycle::mean     0.189537                       # Number of insts commited each cycle
system.cpu1.commit.committed_per_cycle::stdev     0.843990                       # Number of insts commited each cycle
system.cpu1.commit.committed_per_cycle::underflows            0      0.00%      0.00% # Number of insts commited each cycle
system.cpu1.commit.committed_per_cycle::0    420020737     92.00%     92.00% # Number of insts commited each cycle
system.cpu1.commit.committed_per_cycle::1     17906543      3.92%     95.92% # Number of insts commited each cycle
system.cpu1.commit.committed_per_cycle::2      6282534      1.38%     97.30% # Number of insts commited each cycle
system.cpu1.commit.committed_per_cycle::3      5980792      1.31%     98.61% # Number of insts commited each cycle
system.cpu1.commit.committed_per_cycle::4      1835638      0.40%     99.01% # Number of insts commited each cycle
system.cpu1.commit.committed_per_cycle::5       513984      0.11%     99.12% # Number of insts commited each cycle
system.cpu1.commit.committed_per_cycle::6      1771059      0.39%     99.51% # Number of insts commited each cycle
system.cpu1.commit.committed_per_cycle::7       266563      0.06%     99.57% # Number of insts commited each cycle
system.cpu1.commit.committed_per_cycle::8      1964078      0.43%    100.00% # Number of insts commited each cycle
system.cpu1.commit.committed_per_cycle::overflows            0      0.00%    100.00% # Number of insts commited each cycle
system.cpu1.commit.committed_per_cycle::min_value            0                       # Number of insts commited each cycle
system.cpu1.commit.committed_per_cycle::max_value            8                       # Number of insts commited each cycle
system.cpu1.commit.committed_per_cycle::total    456541928                       # Number of insts commited each cycle
system.cpu1.commit.fp_insts                        12                       # Number of committed floating point instructions.
system.cpu1.commit.function_calls              977222                       # Number of function calls committed.
system.cpu1.commit.int_insts                 81538519                       # Number of committed integer instructions.
system.cpu1.commit.loads                     23234912                       # Number of loads committed
system.cpu1.commit.membars                    3802059                       # Number of memory barriers committed
system.cpu1.commit.op_class_0::No_OpClass      3802059      4.39%      4.39% # Class of committed instruction
system.cpu1.commit.op_class_0::IntAlu        51415428     59.42%     63.81% # Class of committed instruction
system.cpu1.commit.op_class_0::IntMult             44      0.00%     63.81% # Class of committed instruction
system.cpu1.commit.op_class_0::IntDiv              88      0.00%     63.81% # Class of committed instruction
system.cpu1.commit.op_class_0::FloatAdd             0      0.00%     63.81% # Class of committed instruction
system.cpu1.commit.op_class_0::FloatCmp             0      0.00%     63.81% # Class of committed instruction
system.cpu1.commit.op_class_0::FloatCvt             0      0.00%     63.81% # Class of committed instruction
system.cpu1.commit.op_class_0::FloatMult            0      0.00%     63.81% # Class of committed instruction
system.cpu1.commit.op_class_0::FloatMultAcc            0      0.00%     63.81% # Class of committed instruction
system.cpu1.commit.op_class_0::FloatDiv             0      0.00%     63.81% # Class of committed instruction
system.cpu1.commit.op_class_0::FloatMisc            0      0.00%     63.81% # Class of committed instruction
system.cpu1.commit.op_class_0::FloatSqrt            0      0.00%     63.81% # Class of committed instruction
system.cpu1.commit.op_class_0::SimdAdd              0      0.00%     63.81% # Class of committed instruction
system.cpu1.commit.op_class_0::SimdAddAcc            0      0.00%     63.81% # Class of committed instruction
system.cpu1.commit.op_class_0::SimdAlu              0      0.00%     63.81% # Class of committed instruction
system.cpu1.commit.op_class_0::SimdCmp              0      0.00%     63.81% # Class of committed instruction
system.cpu1.commit.op_class_0::SimdCvt              0      0.00%     63.81% # Class of committed instruction
system.cpu1.commit.op_class_0::SimdMisc             0      0.00%     63.81% # Class of committed instruction
system.cpu1.commit.op_class_0::SimdMult             0      0.00%     63.81% # Class of committed instruction
system.cpu1.commit.op_class_0::SimdMultAcc            0      0.00%     63.81% # Class of committed instruction
system.cpu1.commit.op_class_0::SimdShift            0      0.00%     63.81% # Class of committed instruction
system.cpu1.commit.op_class_0::SimdShiftAcc            0      0.00%     63.81% # Class of committed instruction
system.cpu1.commit.op_class_0::SimdDiv              0      0.00%     63.81% # Class of committed instruction
system.cpu1.commit.op_class_0::SimdSqrt             0      0.00%     63.81% # Class of committed instruction
system.cpu1.commit.op_class_0::SimdFloatAdd            0      0.00%     63.81% # Class of committed instruction
system.cpu1.commit.op_class_0::SimdFloatAlu            0      0.00%     63.81% # Class of committed instruction
system.cpu1.commit.op_class_0::SimdFloatCmp            0      0.00%     63.81% # Class of committed instruction
system.cpu1.commit.op_class_0::SimdFloatCvt            0      0.00%     63.81% # Class of committed instruction
system.cpu1.commit.op_class_0::SimdFloatDiv            0      0.00%     63.81% # Class of committed instruction
system.cpu1.commit.op_class_0::SimdFloatMisc            0      0.00%     63.81% # Class of committed instruction
system.cpu1.commit.op_class_0::SimdFloatMult            0      0.00%     63.81% # Class of committed instruction
system.cpu1.commit.op_class_0::SimdFloatMultAcc            0      0.00%     63.81% # Class of committed instruction
system.cpu1.commit.op_class_0::SimdFloatSqrt            0      0.00%     63.81% # Class of committed instruction
system.cpu1.commit.op_class_0::SimdReduceAdd            0      0.00%     63.81% # Class of committed instruction
system.cpu1.commit.op_class_0::SimdReduceAlu            0      0.00%     63.81% # Class of committed instruction
system.cpu1.commit.op_class_0::SimdReduceCmp            0      0.00%     63.81% # Class of committed instruction
system.cpu1.commit.op_class_0::SimdFloatReduceAdd            0      0.00%     63.81% # Class of committed instruction
system.cpu1.commit.op_class_0::SimdFloatReduceCmp            0      0.00%     63.81% # Class of committed instruction
system.cpu1.commit.op_class_0::SimdAes              0      0.00%     63.81% # Class of committed instruction
system.cpu1.commit.op_class_0::SimdAesMix            0      0.00%     63.81% # Class of committed instruction
system.cpu1.commit.op_class_0::SimdSha1Hash            0      0.00%     63.81% # Class of committed instruction
system.cpu1.commit.op_class_0::SimdSha1Hash2            0      0.00%     63.81% # Class of committed instruction
system.cpu1.commit.op_class_0::SimdSha256Hash            0      0.00%     63.81% # Class of committed instruction
system.cpu1.commit.op_class_0::SimdSha256Hash2            0      0.00%     63.81% # Class of committed instruction
system.cpu1.commit.op_class_0::SimdShaSigma2            0      0.00%     63.81% # Class of committed instruction
system.cpu1.commit.op_class_0::SimdShaSigma3            0      0.00%     63.81% # Class of committed instruction
system.cpu1.commit.op_class_0::SimdPredAlu            0      0.00%     63.81% # Class of committed instruction
system.cpu1.commit.op_class_0::MemRead       25135912     29.05%     92.86% # Class of committed instruction
system.cpu1.commit.op_class_0::MemWrite       6177835      7.14%    100.00% # Class of committed instruction
system.cpu1.commit.op_class_0::FloatMemRead            0      0.00%    100.00% # Class of committed instruction
system.cpu1.commit.op_class_0::FloatMemWrite           12      0.00%    100.00% # Class of committed instruction
system.cpu1.commit.op_class_0::IprAccess            0      0.00%    100.00% # Class of committed instruction
system.cpu1.commit.op_class_0::InstPrefetch            0      0.00%    100.00% # Class of committed instruction
system.cpu1.commit.op_class_0::total         86531378                       # Class of committed instruction
system.cpu1.commit.refs                      31313759                       # Number of memory references committed
system.cpu1.commit.swp_count                        0                       # Number of s/w prefetches committed
system.cpu1.commit.vec_insts                        0                       # Number of committed Vector instructions.
system.cpu1.committedInsts                   84630190                       # Number of Instructions Simulated
system.cpu1.committedOps                     86531378                       # Number of Ops (including micro ops) Simulated
system.cpu1.cpi                              5.445308                       # CPI: Cycles Per Instruction
system.cpu1.cpi_total                        5.445308                       # CPI: Total CPI of All Threads
system.cpu1.decode.BlockedCycles            393554006                       # Number of cycles decode is blocked
system.cpu1.decode.BranchMispred               281966                       # Number of times decode detected a branch misprediction
system.cpu1.decode.BranchResolved            13456444                       # Number of times decode resolved a branch
system.cpu1.decode.DecodedInsts             105180667                       # Number of instructions handled by decode
system.cpu1.decode.IdleCycles                17121577                       # Number of cycles decode is idle
system.cpu1.decode.RunCycles                 42406431                       # Number of cycles decode is running
system.cpu1.decode.SquashCycles               1452415                       # Number of cycles decode is squashing
system.cpu1.decode.SquashedInsts               757768                       # Number of squashed instructions handled by decode
system.cpu1.decode.UnblockCycles              4563825                       # Number of cycles decode is unblocking
system.cpu1.dtb.accesses                            0                       # DTB accesses
system.cpu1.dtb.hits                                0                       # DTB hits
system.cpu1.dtb.misses                              0                       # DTB misses
system.cpu1.dtb.read_accesses                       0                       # DTB read accesses
system.cpu1.dtb.read_hits                           0                       # DTB read hits
system.cpu1.dtb.read_misses                         0                       # DTB read misses
system.cpu1.dtb.write_accesses                      0                       # DTB write accesses
system.cpu1.dtb.write_hits                          0                       # DTB write hits
system.cpu1.dtb.write_misses                        0                       # DTB write misses
system.cpu1.fetch.Branches                   26086143                       # Number of branches that fetch encountered
system.cpu1.fetch.CacheLines                 15242672                       # Number of cache lines fetched
system.cpu1.fetch.Cycles                    439685227                       # Number of cycles fetch has run and was not squashing or blocked
system.cpu1.fetch.IcacheSquashes               349620                       # Number of outstanding Icache misses that were squashed
system.cpu1.fetch.IcacheWaitRetryStallCycles           31                       # Number of stall cycles due to full MSHR
system.cpu1.fetch.Insts                     107953457                       # Number of instructions fetch has processed
system.cpu1.fetch.MiscStallCycles                   4                       # Number of cycles fetch has spent waiting on interrupts, or bad addresses, or out of MSHRs
system.cpu1.fetch.SquashCycles                3452378                       # Number of cycles fetch has spent squashing
system.cpu1.fetch.branchRate                 0.056606                       # Number of branch fetches per cycle
system.cpu1.fetch.icacheStallCycles          17686803                       # Number of cycles fetch is stalled on an Icache miss
system.cpu1.fetch.predictedBranches          14839621                       # Number of branches that fetch has predicted taken
system.cpu1.fetch.rate                       0.234255                       # Number of inst fetches per cycle
system.cpu1.fetch.rateDist::samples         459098254                       # Number of instructions fetched each cycle (Total)
system.cpu1.fetch.rateDist::mean             0.239287                       # Number of instructions fetched each cycle (Total)
system.cpu1.fetch.rateDist::stdev            0.678854                       # Number of instructions fetched each cycle (Total)
system.cpu1.fetch.rateDist::underflows              0      0.00%      0.00% # Number of instructions fetched each cycle (Total)
system.cpu1.fetch.rateDist::0               391318992     85.24%     85.24% # Number of instructions fetched each cycle (Total)
system.cpu1.fetch.rateDist::1                40894446      8.91%     94.14% # Number of instructions fetched each cycle (Total)
system.cpu1.fetch.rateDist::2                16451594      3.58%     97.73% # Number of instructions fetched each cycle (Total)
system.cpu1.fetch.rateDist::3                 7183331      1.56%     99.29% # Number of instructions fetched each cycle (Total)
system.cpu1.fetch.rateDist::4                 2203474      0.48%     99.77% # Number of instructions fetched each cycle (Total)
system.cpu1.fetch.rateDist::5                  584197      0.13%     99.90% # Number of instructions fetched each cycle (Total)
system.cpu1.fetch.rateDist::6                  461924      0.10%    100.00% # Number of instructions fetched each cycle (Total)
system.cpu1.fetch.rateDist::7                      12      0.00%    100.00% # Number of instructions fetched each cycle (Total)
system.cpu1.fetch.rateDist::8                     284      0.00%    100.00% # Number of instructions fetched each cycle (Total)
system.cpu1.fetch.rateDist::overflows               0      0.00%    100.00% # Number of instructions fetched each cycle (Total)
system.cpu1.fetch.rateDist::min_value               0                       # Number of instructions fetched each cycle (Total)
system.cpu1.fetch.rateDist::max_value               8                       # Number of instructions fetched each cycle (Total)
system.cpu1.fetch.rateDist::total           459098254                       # Number of instructions fetched each cycle (Total)
system.cpu1.fp_regfile_reads                       12                       # number of floating regfile reads
system.cpu1.idleCycles                        1739225                       # Total number of cycles that the CPU has spent unscheduled due to idling
system.cpu1.iew.branchMispredicts             1554798                       # Number of branch mispredicts detected at execute
system.cpu1.iew.exec_branches                22036551                       # Number of branches executed
system.cpu1.iew.exec_nop                            0                       # number of nop insts executed
system.cpu1.iew.exec_rate                    0.206552                       # Inst execution rate
system.cpu1.iew.exec_refs                    34297831                       # number of memory reference insts executed
system.cpu1.iew.exec_stores                   8715556                       # Number of stores executed
system.cpu1.iew.exec_swp                            0                       # number of swp insts executed
system.cpu1.iew.iewBlockCycles              335323198                       # Number of cycles IEW is blocking
system.cpu1.iew.iewDispLoadInsts             26284854                       # Number of dispatched load instructions
system.cpu1.iew.iewDispNonSpecInsts           1901909                       # Number of dispatched non-speculative instructions
system.cpu1.iew.iewDispSquashedInsts          1494672                       # Number of squashed instructions skipped by dispatch
system.cpu1.iew.iewDispStoreInsts             9308212                       # Number of dispatched store instructions
system.cpu1.iew.iewDispatchedInsts           99365849                       # Number of instructions dispatched to IQ
system.cpu1.iew.iewExecLoadInsts             25582275                       # Number of load instructions executed
system.cpu1.iew.iewExecSquashedInsts          1382677                       # Number of squashed instructions skipped in execute
system.cpu1.iew.iewExecutedInsts             95186866                       # Number of executed instructions
system.cpu1.iew.iewIQFullEvents               1819119                       # Number of times the IQ has become full, causing a stall
system.cpu1.iew.iewIdleCycles                       0                       # Number of cycles IEW is idle
system.cpu1.iew.iewLSQFullEvents              3231685                       # Number of times the LSQ has become full, causing a stall
system.cpu1.iew.iewSquashCycles               1452415                       # Number of cycles IEW is squashing
system.cpu1.iew.iewUnblockCycles              7260489                       # Number of cycles IEW is unblocking
system.cpu1.iew.lsq.thread0.blockedLoads            0                       # Number of blocked loads due to partial load-store forwarding
system.cpu1.iew.lsq.thread0.cacheBlocked        84649                       # Number of times an access to memory failed due to the cache being blocked
system.cpu1.iew.lsq.thread0.forwLoads          849372                       # Number of loads that had data forwarded from stores
system.cpu1.iew.lsq.thread0.ignoredResponses        28301                       # Number of memory responses ignored because the instruction is squashed
system.cpu1.iew.lsq.thread0.invAddrLoads            0                       # Number of loads ignored due to an invalid address
system.cpu1.iew.lsq.thread0.invAddrSwpfs            0                       # Number of software prefetches ignored due to an invalid address
system.cpu1.iew.lsq.thread0.memOrderViolation         3098                       # Number of memory ordering violations
system.cpu1.iew.lsq.thread0.rescheduledLoads         6144                       # Number of loads that were rescheduled
system.cpu1.iew.lsq.thread0.squashedLoads      3049942                       # Number of loads squashed
system.cpu1.iew.lsq.thread0.squashedStores      1229365                       # Number of stores squashed
system.cpu1.iew.memOrderViolationEvents          3098                       # Number of memory order violations
system.cpu1.iew.predictedNotTakenIncorrect       543679                       # Number of branches that were predicted not taken incorrectly
system.cpu1.iew.predictedTakenIncorrect       1011119                       # Number of branches that were predicted taken incorrectly
system.cpu1.iew.wb_consumers                 52605052                       # num instructions consuming a value
system.cpu1.iew.wb_count                     93851856                       # cumulative count of insts written-back
system.cpu1.iew.wb_fanout                    0.814901                       # average fanout of values written-back
system.cpu1.iew.wb_producers                 42867885                       # num instructions producing a value
system.cpu1.iew.wb_rate                      0.203655                       # insts written-back per cycle
system.cpu1.iew.wb_sent                      93906920                       # cumulative count of insts sent to commit
system.cpu1.int_regfile_reads               119844339                       # number of integer regfile reads
system.cpu1.int_regfile_writes               61777973                       # number of integer regfile writes
system.cpu1.ipc                              0.183644                       # IPC: Instructions Per Cycle
system.cpu1.ipc_total                        0.183644                       # IPC: Total IPC of All Threads
system.cpu1.iq.FU_type_0::No_OpClass          3802280      3.94%      3.94% # Type of FU issued
system.cpu1.iq.FU_type_0::IntAlu             57987324     60.05%     63.98% # Type of FU issued
system.cpu1.iq.FU_type_0::IntMult                  57      0.00%     63.98% # Type of FU issued
system.cpu1.iq.FU_type_0::IntDiv                   90      0.00%     63.98% # Type of FU issued
system.cpu1.iq.FU_type_0::FloatAdd                  0      0.00%     63.98% # Type of FU issued
system.cpu1.iq.FU_type_0::FloatCmp                  0      0.00%     63.98% # Type of FU issued
system.cpu1.iq.FU_type_0::FloatCvt                  0      0.00%     63.98% # Type of FU issued
system.cpu1.iq.FU_type_0::FloatMult                 0      0.00%     63.98% # Type of FU issued
system.cpu1.iq.FU_type_0::FloatMultAcc              0      0.00%     63.98% # Type of FU issued
system.cpu1.iq.FU_type_0::FloatDiv                  0      0.00%     63.98% # Type of FU issued
system.cpu1.iq.FU_type_0::FloatMisc                 0      0.00%     63.98% # Type of FU issued
system.cpu1.iq.FU_type_0::FloatSqrt                 0      0.00%     63.98% # Type of FU issued
system.cpu1.iq.FU_type_0::SimdAdd                   0      0.00%     63.98% # Type of FU issued
system.cpu1.iq.FU_type_0::SimdAddAcc                0      0.00%     63.98% # Type of FU issued
system.cpu1.iq.FU_type_0::SimdAlu                   0      0.00%     63.98% # Type of FU issued
system.cpu1.iq.FU_type_0::SimdCmp                   0      0.00%     63.98% # Type of FU issued
system.cpu1.iq.FU_type_0::SimdCvt                   0      0.00%     63.98% # Type of FU issued
system.cpu1.iq.FU_type_0::SimdMisc                  0      0.00%     63.98% # Type of FU issued
system.cpu1.iq.FU_type_0::SimdMult                  0      0.00%     63.98% # Type of FU issued
system.cpu1.iq.FU_type_0::SimdMultAcc               0      0.00%     63.98% # Type of FU issued
system.cpu1.iq.FU_type_0::SimdShift                 0      0.00%     63.98% # Type of FU issued
system.cpu1.iq.FU_type_0::SimdShiftAcc              0      0.00%     63.98% # Type of FU issued
system.cpu1.iq.FU_type_0::SimdDiv                   0      0.00%     63.98% # Type of FU issued
system.cpu1.iq.FU_type_0::SimdSqrt                  0      0.00%     63.98% # Type of FU issued
system.cpu1.iq.FU_type_0::SimdFloatAdd              0      0.00%     63.98% # Type of FU issued
system.cpu1.iq.FU_type_0::SimdFloatAlu              0      0.00%     63.98% # Type of FU issued
system.cpu1.iq.FU_type_0::SimdFloatCmp              0      0.00%     63.98% # Type of FU issued
system.cpu1.iq.FU_type_0::SimdFloatCvt              0      0.00%     63.98% # Type of FU issued
system.cpu1.iq.FU_type_0::SimdFloatDiv              0      0.00%     63.98% # Type of FU issued
system.cpu1.iq.FU_type_0::SimdFloatMisc             0      0.00%     63.98% # Type of FU issued
system.cpu1.iq.FU_type_0::SimdFloatMult             0      0.00%     63.98% # Type of FU issued
system.cpu1.iq.FU_type_0::SimdFloatMultAcc            0      0.00%     63.98% # Type of FU issued
system.cpu1.iq.FU_type_0::SimdFloatSqrt             0      0.00%     63.98% # Type of FU issued
system.cpu1.iq.FU_type_0::SimdReduceAdd             0      0.00%     63.98% # Type of FU issued
system.cpu1.iq.FU_type_0::SimdReduceAlu             0      0.00%     63.98% # Type of FU issued
system.cpu1.iq.FU_type_0::SimdReduceCmp             0      0.00%     63.98% # Type of FU issued
system.cpu1.iq.FU_type_0::SimdFloatReduceAdd            0      0.00%     63.98% # Type of FU issued
system.cpu1.iq.FU_type_0::SimdFloatReduceCmp            0      0.00%     63.98% # Type of FU issued
system.cpu1.iq.FU_type_0::SimdAes                   0      0.00%     63.98% # Type of FU issued
system.cpu1.iq.FU_type_0::SimdAesMix                0      0.00%     63.98% # Type of FU issued
system.cpu1.iq.FU_type_0::SimdSha1Hash              0      0.00%     63.98% # Type of FU issued
system.cpu1.iq.FU_type_0::SimdSha1Hash2             0      0.00%     63.98% # Type of FU issued
system.cpu1.iq.FU_type_0::SimdSha256Hash            0      0.00%     63.98% # Type of FU issued
system.cpu1.iq.FU_type_0::SimdSha256Hash2            0      0.00%     63.98% # Type of FU issued
system.cpu1.iq.FU_type_0::SimdShaSigma2             0      0.00%     63.98% # Type of FU issued
system.cpu1.iq.FU_type_0::SimdShaSigma3             0      0.00%     63.98% # Type of FU issued
system.cpu1.iq.FU_type_0::SimdPredAlu               0      0.00%     63.98% # Type of FU issued
system.cpu1.iq.FU_type_0::MemRead            27849445     28.84%     92.82% # Type of FU issued
system.cpu1.iq.FU_type_0::MemWrite            6930335      7.18%    100.00% # Type of FU issued
system.cpu1.iq.FU_type_0::FloatMemRead              0      0.00%    100.00% # Type of FU issued
system.cpu1.iq.FU_type_0::FloatMemWrite            12      0.00%    100.00% # Type of FU issued
system.cpu1.iq.FU_type_0::IprAccess                 0      0.00%    100.00% # Type of FU issued
system.cpu1.iq.FU_type_0::InstPrefetch              0      0.00%    100.00% # Type of FU issued
system.cpu1.iq.FU_type_0::total              96569543                       # Type of FU issued
system.cpu1.iq.fp_alu_accesses                     16                       # Number of floating point alu accesses
system.cpu1.iq.fp_inst_queue_reads                 28                       # Number of floating instruction queue reads
system.cpu1.iq.fp_inst_queue_wakeup_accesses           12                       # Number of floating instruction queue wakeup accesses
system.cpu1.iq.fp_inst_queue_writes                12                       # Number of floating instruction queue writes
system.cpu1.iq.fu_busy_cnt                    2278508                       # FU busy when requested
system.cpu1.iq.fu_busy_rate                  0.023594                       # FU busy rate (busy events/executed inst)
system.cpu1.iq.fu_full::No_OpClass                  0      0.00%      0.00% # attempts to use FU when none available
system.cpu1.iq.fu_full::IntAlu                 425341     18.67%     18.67% # attempts to use FU when none available
system.cpu1.iq.fu_full::IntMult                     0      0.00%     18.67% # attempts to use FU when none available
system.cpu1.iq.fu_full::IntDiv                      0      0.00%     18.67% # attempts to use FU when none available
system.cpu1.iq.fu_full::FloatAdd                    0      0.00%     18.67% # attempts to use FU when none available
system.cpu1.iq.fu_full::FloatCmp                    0      0.00%     18.67% # attempts to use FU when none available
system.cpu1.iq.fu_full::FloatCvt                    0      0.00%     18.67% # attempts to use FU when none available
system.cpu1.iq.fu_full::FloatMult                   0      0.00%     18.67% # attempts to use FU when none available
system.cpu1.iq.fu_full::FloatMultAcc                0      0.00%     18.67% # attempts to use FU when none available
system.cpu1.iq.fu_full::FloatDiv                    0      0.00%     18.67% # attempts to use FU when none available
system.cpu1.iq.fu_full::FloatMisc                   0      0.00%     18.67% # attempts to use FU when none available
system.cpu1.iq.fu_full::FloatSqrt                   0      0.00%     18.67% # attempts to use FU when none available
system.cpu1.iq.fu_full::SimdAdd                     0      0.00%     18.67% # attempts to use FU when none available
system.cpu1.iq.fu_full::SimdAddAcc                  0      0.00%     18.67% # attempts to use FU when none available
system.cpu1.iq.fu_full::SimdAlu                     0      0.00%     18.67% # attempts to use FU when none available
system.cpu1.iq.fu_full::SimdCmp                     0      0.00%     18.67% # attempts to use FU when none available
system.cpu1.iq.fu_full::SimdCvt                     0      0.00%     18.67% # attempts to use FU when none available
system.cpu1.iq.fu_full::SimdMisc                    0      0.00%     18.67% # attempts to use FU when none available
system.cpu1.iq.fu_full::SimdMult                    0      0.00%     18.67% # attempts to use FU when none available
system.cpu1.iq.fu_full::SimdMultAcc                 0      0.00%     18.67% # attempts to use FU when none available
system.cpu1.iq.fu_full::SimdShift                   0      0.00%     18.67% # attempts to use FU when none available
system.cpu1.iq.fu_full::SimdShiftAcc                0      0.00%     18.67% # attempts to use FU when none available
system.cpu1.iq.fu_full::SimdDiv                     0      0.00%     18.67% # attempts to use FU when none available
system.cpu1.iq.fu_full::SimdSqrt                    0      0.00%     18.67% # attempts to use FU when none available
system.cpu1.iq.fu_full::SimdFloatAdd                0      0.00%     18.67% # attempts to use FU when none available
system.cpu1.iq.fu_full::SimdFloatAlu                0      0.00%     18.67% # attempts to use FU when none available
system.cpu1.iq.fu_full::SimdFloatCmp                0      0.00%     18.67% # attempts to use FU when none available
system.cpu1.iq.fu_full::SimdFloatCvt                0      0.00%     18.67% # attempts to use FU when none available
system.cpu1.iq.fu_full::SimdFloatDiv                0      0.00%     18.67% # attempts to use FU when none available
system.cpu1.iq.fu_full::SimdFloatMisc               0      0.00%     18.67% # attempts to use FU when none available
system.cpu1.iq.fu_full::SimdFloatMult               0      0.00%     18.67% # attempts to use FU when none available
system.cpu1.iq.fu_full::SimdFloatMultAcc            0      0.00%     18.67% # attempts to use FU when none available
system.cpu1.iq.fu_full::SimdFloatSqrt               0      0.00%     18.67% # attempts to use FU when none available
system.cpu1.iq.fu_full::SimdReduceAdd               0      0.00%     18.67% # attempts to use FU when none available
system.cpu1.iq.fu_full::SimdReduceAlu               0      0.00%     18.67% # attempts to use FU when none available
system.cpu1.iq.fu_full::SimdReduceCmp               0      0.00%     18.67% # attempts to use FU when none available
system.cpu1.iq.fu_full::SimdFloatReduceAdd            0      0.00%     18.67% # attempts to use FU when none available
system.cpu1.iq.fu_full::SimdFloatReduceCmp            0      0.00%     18.67% # attempts to use FU when none available
system.cpu1.iq.fu_full::SimdAes                     0      0.00%     18.67% # attempts to use FU when none available
system.cpu1.iq.fu_full::SimdAesMix                  0      0.00%     18.67% # attempts to use FU when none available
system.cpu1.iq.fu_full::SimdSha1Hash                0      0.00%     18.67% # attempts to use FU when none available
system.cpu1.iq.fu_full::SimdSha1Hash2               0      0.00%     18.67% # attempts to use FU when none available
system.cpu1.iq.fu_full::SimdSha256Hash              0      0.00%     18.67% # attempts to use FU when none available
system.cpu1.iq.fu_full::SimdSha256Hash2             0      0.00%     18.67% # attempts to use FU when none available
system.cpu1.iq.fu_full::SimdShaSigma2               0      0.00%     18.67% # attempts to use FU when none available
system.cpu1.iq.fu_full::SimdShaSigma3               0      0.00%     18.67% # attempts to use FU when none available
system.cpu1.iq.fu_full::SimdPredAlu                 0      0.00%     18.67% # attempts to use FU when none available
system.cpu1.iq.fu_full::MemRead               1619978     71.10%     89.77% # attempts to use FU when none available
[...]
system.cpu1.dcache.WriteReq_avg_mshr_miss_latency::total 102065.978189                       # average WriteReq mshr miss latency
system.cpu1.dcache.LoadLockedReq_hits::.cpu1.data       119531                       # number of LoadLockedReq hits
system.cpu1.dcache.LoadLockedReq_hits::total       119531                       # number of LoadLockedReq hits
system.cpu1.dcache.LoadLockedReq_misses::.cpu1.data         1368                       # number of LoadLockedReq misses
system.cpu1.dcache.LoadLockedReq_misses::total         1368                       # number of LoadLockedReq misses
system.cpu1.dcache.LoadLockedReq_miss_latency::.cpu1.data     49080500                       # number of LoadLockedReq miss cycles
system.cpu1.dcache.LoadLockedReq_miss_latency::total     49080500                       # number of LoadLockedReq miss cycles
system.cpu1.dcache.LoadLockedReq_accesses::.cpu1.data       120899                       # number of LoadLockedReq accesses(hits+misses)
system.cpu1.dcache.LoadLockedReq_accesses::total       120899                       # number of LoadLockedReq accesses(hits+misses)
system.cpu1.dcache.LoadLockedReq_miss_rate::.cpu1.data     0.011315                       # miss rate for LoadLockedReq accesses
system.cpu1.dcache.LoadLockedReq_miss_rate::total     0.011315                       # miss rate for LoadLockedReq accesses
system.cpu1.dcache.LoadLockedReq_avg_miss_latency::.cpu1.data 35877.558480                       # average LoadLockedReq miss latency
system.cpu1.dcache.LoadLockedReq_avg_miss_latency::total 35877.558480                       # average LoadLockedReq miss latency
system.cpu1.dcache.LoadLockedReq_mshr_hits::.cpu1.data          572                       # number of LoadLockedReq MSHR hits
system.cpu1.dcache.LoadLockedReq_mshr_hits::total          572                       # number of LoadLockedReq MSHR hits
system.cpu1.dcache.LoadLockedReq_mshr_misses::.cpu1.data          796                       # number of LoadLockedReq MSHR misses
system.cpu1.dcache.LoadLockedReq_mshr_misses::total          796                       # number of LoadLockedReq MSHR misses
system.cpu1.dcache.LoadLockedReq_mshr_miss_latency::.cpu1.data     15226000                       # number of LoadLockedReq MSHR miss cycles
system.cpu1.dcache.LoadLockedReq_mshr_miss_latency::total     15226000                       # number of LoadLockedReq MSHR miss cycles
system.cpu1.dcache.LoadLockedReq_mshr_miss_rate::.cpu1.data     0.006584                       # mshr miss rate for LoadLockedReq accesses
system.cpu1.dcache.LoadLockedReq_mshr_miss_rate::total     0.006584                       # mshr miss rate for LoadLockedReq accesses
system.cpu1.dcache.LoadLockedReq_avg_mshr_miss_latency::.cpu1.data 19128.140704                       # average LoadLockedReq mshr miss latency
system.cpu1.dcache.LoadLockedReq_avg_mshr_miss_latency::total 19128.140704                       # average LoadLockedReq mshr miss latency
system.cpu1.dcache.StoreCondReq_hits::.cpu1.data       117152                       # number of StoreCondReq hits
system.cpu1.dcache.StoreCondReq_hits::total       117152                       # number of StoreCondReq hits
system.cpu1.dcache.StoreCondReq_misses::.cpu1.data         2517                       # number of StoreCondReq misses
system.cpu1.dcache.StoreCondReq_misses::total         2517                       # number of StoreCondReq misses
system.cpu1.dcache.StoreCondReq_miss_latency::.cpu1.data     23122000                       # number of StoreCondReq miss cycles
system.cpu1.dcache.StoreCondReq_miss_latency::total     23122000                       # number of StoreCondReq miss cycles
system.cpu1.dcache.StoreCondReq_accesses::.cpu1.data       119669                       # number of StoreCondReq accesses(hits+misses)
system.cpu1.dcache.StoreCondReq_accesses::total       119669                       # number of StoreCondReq accesses(hits+misses)
system.cpu1.dcache.StoreCondReq_miss_rate::.cpu1.data     0.021033                       # miss rate for StoreCondReq accesses
system.cpu1.dcache.StoreCondReq_miss_rate::total     0.021033                       # miss rate for StoreCondReq accesses
system.cpu1.dcache.StoreCondReq_avg_miss_latency::.cpu1.data  9186.332936                       # average StoreCondReq miss latency
system.cpu1.dcache.StoreCondReq_avg_miss_latency::total  9186.332936                       # average StoreCondReq miss latency
system.cpu1.dcache.StoreCondReq_mshr_misses::.cpu1.data         2478                       # number of StoreCondReq MSHR misses
system.cpu1.dcache.StoreCondReq_mshr_misses::total         2478                       # number of StoreCondReq MSHR misses
system.cpu1.dcache.StoreCondReq_mshr_miss_latency::.cpu1.data     20818000                       # number of StoreCondReq MSHR miss cycles
system.cpu1.dcache.StoreCondReq_mshr_miss_latency::total     20818000                       # number of StoreCondReq MSHR miss cycles
system.cpu1.dcache.StoreCondReq_mshr_miss_rate::.cpu1.data     0.020707                       # mshr miss rate for StoreCondReq accesses
system.cpu1.dcache.StoreCondReq_mshr_miss_rate::total     0.020707                       # mshr miss rate for StoreCondReq accesses
system.cpu1.dcache.StoreCondReq_avg_mshr_miss_latency::.cpu1.data  8401.129944                       # average StoreCondReq mshr miss latency
system.cpu1.dcache.StoreCondReq_avg_mshr_miss_latency::total  8401.129944                       # average StoreCondReq mshr miss latency
system.cpu1.dcache.StoreCondFailReq_miss_latency::.cpu1.data      5056000                       # number of StoreCondFailReq miss cycles
system.cpu1.dcache.StoreCondFailReq_miss_latency::total      5056000                       # number of StoreCondFailReq miss cycles
system.cpu1.dcache.StoreCondFailReq_avg_miss_latency::.cpu1.data          inf                       # average StoreCondFailReq miss latency
system.cpu1.dcache.StoreCondFailReq_avg_miss_latency::total          inf                       # average StoreCondFailReq miss latency
system.cpu1.dcache.StoreCondFailReq_mshr_miss_latency::.cpu1.data      4882000                       # number of StoreCondFailReq MSHR miss cycles
system.cpu1.dcache.StoreCondFailReq_mshr_miss_latency::total      4882000                       # number of StoreCondFailReq MSHR miss cycles
system.cpu1.dcache.StoreCondFailReq_avg_mshr_miss_latency::.cpu1.data          inf                       # average StoreCondFailReq mshr miss latency
system.cpu1.dcache.StoreCondFailReq_avg_mshr_miss_latency::total          inf                       # average StoreCondFailReq mshr miss latency
system.cpu1.dcache.SwapReq_hits::.cpu1.data         1280                       # number of SwapReq hits
system.cpu1.dcache.SwapReq_hits::total           1280                       # number of SwapReq hits
system.cpu1.dcache.SwapReq_misses::.cpu1.data         5173                       # number of SwapReq misses
system.cpu1.dcache.SwapReq_misses::total         5173                       # number of SwapReq misses
system.cpu1.dcache.SwapReq_miss_latency::.cpu1.data    148805500                       # number of SwapReq miss cycles
system.cpu1.dcache.SwapReq_miss_latency::total    148805500                       # number of SwapReq miss cycles
system.cpu1.dcache.SwapReq_accesses::.cpu1.data         6453                       # number of SwapReq accesses(hits+misses)
system.cpu1.dcache.SwapReq_accesses::total         6453                       # number of SwapReq accesses(hits+misses)
system.cpu1.dcache.SwapReq_miss_rate::.cpu1.data     0.801643                       # miss rate for SwapReq accesses
system.cpu1.dcache.SwapReq_miss_rate::total     0.801643                       # miss rate for SwapReq accesses
system.cpu1.dcache.SwapReq_avg_miss_latency::.cpu1.data 28765.803209                       # average SwapReq miss latency
system.cpu1.dcache.SwapReq_avg_miss_latency::total 28765.803209                       # average SwapReq miss latency
system.cpu1.dcache.SwapReq_mshr_hits::.cpu1.data            2                       # number of SwapReq MSHR hits
system.cpu1.dcache.SwapReq_mshr_hits::total            2                       # number of SwapReq MSHR hits
system.cpu1.dcache.SwapReq_mshr_misses::.cpu1.data         5171                       # number of SwapReq MSHR misses
system.cpu1.dcache.SwapReq_mshr_misses::total         5171                       # number of SwapReq MSHR misses
system.cpu1.dcache.SwapReq_mshr_miss_latency::.cpu1.data    143632500                       # number of SwapReq MSHR miss cycles
system.cpu1.dcache.SwapReq_mshr_miss_latency::total    143632500                       # number of SwapReq MSHR miss cycles
system.cpu1.dcache.SwapReq_mshr_miss_rate::.cpu1.data     0.801333                       # mshr miss rate for SwapReq accesses
system.cpu1.dcache.SwapReq_mshr_miss_rate::total     0.801333                       # mshr miss rate for SwapReq accesses
system.cpu1.dcache.SwapReq_avg_mshr_miss_latency::.cpu1.data 27776.542255                       # average SwapReq mshr miss latency
system.cpu1.dcache.SwapReq_avg_mshr_miss_latency::total 27776.542255                       # average SwapReq mshr miss latency
system.cpu1.dcache.tags.pwrStateResidencyTicks::UNDEFINED 138660159500                       # Cumulative time (in ticks) in various power states
system.cpu1.dcache.tags.tagsinuse           31.061736                       # Cycle average of tags in use
system.cpu1.dcache.tags.total_refs           24695618                       # Total number of references to valid blocks.
system.cpu1.dcache.tags.sampled_refs          2741141                       # Sample count of references to valid blocks.
system.cpu1.dcache.tags.avg_refs             9.009248                       # Average number of references to valid blocks.
system.cpu1.dcache.tags.warmup_cycle                0                       # Cycle when the warmup percentage was hit.
system.cpu1.dcache.tags.occ_blocks::.cpu1.data    31.061736                       # Average occupied blocks per requestor
system.cpu1.dcache.tags.occ_percent::.cpu1.data     0.970679                       # Average percentage of cache occupancy
system.cpu1.dcache.tags.occ_percent::total     0.970679                       # Average percentage of cache occupancy
system.cpu1.dcache.tags.occ_task_id_blocks::1024           28                       # Occupied blocks per task id
system.cpu1.dcache.tags.age_task_id_blocks_1024::1           28                       # Occupied blocks per task id
system.cpu1.dcache.tags.occ_task_id_percent::1024     0.875000                       # Percentage of cache occupancy per task id
system.cpu1.dcache.tags.tag_accesses         67875709                       # Number of tag accesses
system.cpu1.dcache.tags.data_accesses        67875709                       # Number of data accesses
system.cpu_clk_domain.clock                       500                       # Clock period in ticks
system.tol2bus.pwrStateResidencyTicks::UNDEFINED 138660159500                       # Cumulative time (in ticks) in various power states
system.tol2bus.trans_dist::ReadResp          10846929                       # Transaction distribution
system.tol2bus.trans_dist::ReadRespWithInvalidate           22                       # Transaction distribution
system.tol2bus.trans_dist::WritebackDirty      2116226                       # Transaction distribution
system.tol2bus.trans_dist::WritebackClean      9909128                       # Transaction distribution
system.tol2bus.trans_dist::CleanEvict        15723844                       # Transaction distribution
system.tol2bus.trans_dist::HardPFReq          2349384                       # Transaction distribution
system.tol2bus.trans_dist::HardPFResp              19                       # Transaction distribution
system.tol2bus.trans_dist::UpgradeReq           45378                       # Transaction distribution
system.tol2bus.trans_dist::SCUpgradeReq         11745                       # Transaction distribution
system.tol2bus.trans_dist::UpgradeResp          57123                       # Transaction distribution
system.tol2bus.trans_dist::SCUpgradeFailReq          567                       # Transaction distribution
system.tol2bus.trans_dist::UpgradeFailResp          567                       # Transaction distribution
system.tol2bus.trans_dist::ReadExReq           388419                       # Transaction distribution
system.tol2bus.trans_dist::ReadExResp          388420                       # Transaction distribution
system.tol2bus.trans_dist::ReadCleanReq        198048                       # Transaction distribution
system.tol2bus.trans_dist::ReadSharedReq     10648902                       # Transaction distribution
system.tol2bus.trans_dist::InvalidateReq         4178                       # Transaction distribution
system.tol2bus.trans_dist::InvalidateResp         4178                       # Transaction distribution
system.tol2bus.pkt_count_system.cpu0.icache.mem_side::system.l2.cpu_side       363722                       # Packet count per connected master and slave (bytes)
system.tol2bus.pkt_count_system.cpu0.dcache.mem_side::system.l2.cpu_side      8616586                       # Packet count per connected master and slave (bytes)
system.tol2bus.pkt_count_system.cpu1.icache.mem_side::system.l2.cpu_side        77517                       # Packet count per connected master and slave (bytes)
system.tol2bus.pkt_count_system.cpu1.dcache.mem_side::system.l2.cpu_side      8196438                       # Packet count per connected master and slave (bytes)
system.tol2bus.pkt_count_system.cpu2.icache.mem_side::system.l2.cpu_side        76236                       # Packet count per connected master and slave (bytes)
system.tol2bus.pkt_count_system.cpu2.dcache.mem_side::system.l2.cpu_side      8093632                       # Packet count per connected master and slave (bytes)
system.tol2bus.pkt_count_system.cpu3.icache.mem_side::system.l2.cpu_side        76671                       # Packet count per connected master and slave (bytes)
system.tol2bus.pkt_count_system.cpu3.dcache.mem_side::system.l2.cpu_side      8115894                       # Packet count per connected master and slave (bytes)
system.tol2bus.pkt_count::total              33616696                       # Packet count per connected master and slave (bytes)
system.tol2bus.pkt_size_system.cpu0.icache.mem_side::system.l2.cpu_side     15518848                       # Cumulative packet size per connected master and slave (bytes)
system.tol2bus.pkt_size_system.cpu0.dcache.mem_side::system.l2.cpu_side    365656064                       # Cumulative packet size per connected master and slave (bytes)
system.tol2bus.pkt_size_system.cpu1.icache.mem_side::system.l2.cpu_side      3307392                       # Cumulative packet size per connected master and slave (bytes)
system.tol2bus.pkt_size_system.cpu1.dcache.mem_side::system.l2.cpu_side    348128960                       # Cumulative packet size per connected master and slave (bytes)
system.tol2bus.pkt_size_system.cpu2.icache.mem_side::system.l2.cpu_side      3252736                       # Cumulative packet size per connected master and slave (bytes)
system.tol2bus.pkt_size_system.cpu2.dcache.mem_side::system.l2.cpu_side    343716992                       # Cumulative packet size per connected master and slave (bytes)
system.tol2bus.pkt_size_system.cpu3.icache.mem_side::system.l2.cpu_side      3271296                       # Cumulative packet size per connected master and slave (bytes)
system.tol2bus.pkt_size_system.cpu3.dcache.mem_side::system.l2.cpu_side    344634944                       # Cumulative packet size per connected master and slave (bytes)
system.tol2bus.pkt_size::total             1427487232                       # Cumulative packet size per connected master and slave (bytes)
system.tol2bus.snoops                        19076400                       # Total snoops (count)
system.tol2bus.snoopTraffic                  61237888                       # Total snoop traffic (bytes)
system.tol2bus.snoop_fanout::samples         30244066                       # Request fanout histogram
system.tol2bus.snoop_fanout::mean            0.419862                       # Request fanout histogram
system.tol2bus.snoop_fanout::stdev           0.683100                       # Request fanout histogram
system.tol2bus.snoop_fanout::underflows             0      0.00%      0.00% # Request fanout histogram
system.tol2bus.snoop_fanout::0               20006956     66.15%     66.15% # Request fanout histogram
system.tol2bus.snoop_fanout::1                8578989     28.37%     94.52% # Request fanout histogram
system.tol2bus.snoop_fanout::2                 963589      3.19%     97.70% # Request fanout histogram
system.tol2bus.snoop_fanout::3                 585946      1.94%     99.64% # Request fanout histogram
system.tol2bus.snoop_fanout::4                 108586      0.36%    100.00% # Request fanout histogram
system.tol2bus.snoop_fanout::5                      0      0.00%    100.00% # Request fanout histogram
system.tol2bus.snoop_fanout::6                      0      0.00%    100.00% # Request fanout histogram
system.tol2bus.snoop_fanout::7                      0      0.00%    100.00% # Request fanout histogram
system.tol2bus.snoop_fanout::8                      0      0.00%    100.00% # Request fanout histogram
system.tol2bus.snoop_fanout::overflows              0      0.00%    100.00% # Request fanout histogram
system.tol2bus.snoop_fanout::min_value              0                       # Request fanout histogram
system.tol2bus.snoop_fanout::max_value              4                       # Request fanout histogram
system.tol2bus.snoop_fanout::total           30244066                       # Request fanout histogram
system.tol2bus.reqLayer0.occupancy        22387262431                       # Layer occupancy (ticks)
system.tol2bus.reqLayer0.utilization             16.1                       # Layer utilization (%)
system.tol2bus.respLayer5.occupancy        4092264362                       # Layer occupancy (ticks)
system.tol2bus.respLayer5.utilization             3.0                       # Layer utilization (%)
system.tol2bus.respLayer4.occupancy          41027651                       # Layer occupancy (ticks)
system.tol2bus.respLayer4.utilization             0.0                       # Layer utilization (%)
system.tol2bus.respLayer7.occupancy        4103707317                       # Layer occupancy (ticks)
system.tol2bus.respLayer7.utilization             3.0                       # Layer utilization (%)
system.tol2bus.respLayer6.occupancy          41045186                       # Layer occupancy (ticks)
system.tol2bus.respLayer6.utilization             0.0                       # Layer utilization (%)
system.tol2bus.respLayer1.occupancy        4348529948                       # Layer occupancy (ticks)
system.tol2bus.respLayer1.utilization             3.1                       # Layer utilization (%)
system.tol2bus.respLayer0.occupancy         182150790                       # Layer occupancy (ticks)
system.tol2bus.respLayer0.utilization             0.1                       # Layer utilization (%)
system.tol2bus.respLayer3.occupancy        4143704452                       # Layer occupancy (ticks)
system.tol2bus.respLayer3.utilization             3.0                       # Layer utilization (%)
system.tol2bus.respLayer2.occupancy          41606898                       # Layer occupancy (ticks)
system.tol2bus.respLayer2.utilization             0.0                       # Layer utilization (%)
system.tol2bus.snoopLayer0.occupancy            28519                       # Layer occupancy (ticks)
system.tol2bus.snoopLayer0.utilization            0.0                       # Layer utilization (%)

---------- End Simulation Statistics   ----------
