
---------- Begin Simulation Statistics ----------
final_tick                               1318590922500                       # Number of ticks from beginning of simulation (restored from checkpoints and never reset)
host_inst_rate                                  60461                       # Simulator instruction rate (inst/s)
host_mem_usage                                 702228                       # Number of bytes of host memory used
host_op_rate                                    60638                       # Simulator op (including micro ops) rate (op/s)
host_seconds                                 23760.73                       # Real time elapsed on the host
host_tick_rate                               55494557                       # Simulator tick rate (ticks/s)
sim_freq                                 1000000000000                       # Frequency of simulated ticks
sim_insts                                  1436603725                       # Number of instructions simulated
sim_ops                                    1440807469                       # Number of ops (including micro ops) simulated
sim_seconds                                  1.318591                       # Number of seconds simulated
sim_ticks                                1318590922500                       # Number of ticks simulated
system.cpu0.branchPred.BTBCorrect                   0                       # Number of correct BTB predictions (this stat may not work properly.
system.cpu0.branchPred.BTBHitPct            87.210732                       # BTB Hit Percentage
system.cpu0.branchPred.BTBHits              185537969                       # Number of BTB hits
system.cpu0.branchPred.BTBLookups           212746717                       # Number of BTB lookups
system.cpu0.branchPred.RASInCorrect                 0                       # Number of incorrect RAS predictions.
system.cpu0.branchPred.condIncorrect         19920638                       # Number of conditional branches incorrect
system.cpu0.branchPred.condPredicted        276307284                       # Number of conditional branches predicted
system.cpu0.branchPred.indirectHits          21083639                       # Number of indirect target hits.
system.cpu0.branchPred.indirectLookups       22512490                       # Number of indirect predictor lookups.
system.cpu0.branchPred.indirectMisses         1428851                       # Number of indirect misses.
system.cpu0.branchPred.lookups              352210475                       # Number of BP lookups
system.cpu0.branchPred.usedRAS                      0                       # Number of times the RAS was used to get a target.
system.cpu0.branchPredindirectMispredicted      2187934                       # Number of mispredicted indirect branches.
system.cpu0.commit.amos                       2100253                       # Number of atomic instructions committed
system.cpu0.commit.branchMispredicts         10940083                       # The number of times a branch was mispredicted
system.cpu0.commit.branches                 329547350                       # Number of branches committed
system.cpu0.commit.bw_lim_events             32287340                       # number cycles where commit BW limit reached
system.cpu0.commit.commitNonSpecStalls        6309711                       # The number of times commit has been forced to stall to communicate backwards
system.cpu0.commit.commitSquashedInsts       60939993                       # The number of squashed insts skipped by commit
system.cpu0.commit.committedInsts          1316563506                       # Number of instructions committed
system.cpu0.commit.committedOps            1318667077                       # Number of ops (including micro ops) committed
system.cpu0.commit.committed_per_cycle::samples   2394495031                       # Number of insts commited each cycle
system.cpu0.commit.committed_per_cycle::mean     0.550708                       # Number of insts commited each cycle
system.cpu0.commit.committed_per_cycle::stdev     1.259425                       # Number of insts commited each cycle
system.cpu0.commit.committed_per_cycle::underflows            0      0.00%      0.00% # Number of insts commited each cycle
system.cpu0.commit.committed_per_cycle::0   1716524692     71.69%     71.69% # Number of insts commited each cycle
system.cpu0.commit.committed_per_cycle::1    418220385     17.47%     89.15% # Number of insts commited each cycle
system.cpu0.commit.committed_per_cycle::2    102064772      4.26%     93.41% # Number of insts commited each cycle
system.cpu0.commit.committed_per_cycle::3     86882987      3.63%     97.04% # Number of insts commited each cycle
system.cpu0.commit.committed_per_cycle::4     25192419      1.05%     98.10% # Number of insts commited each cycle
system.cpu0.commit.committed_per_cycle::5      5041813      0.21%     98.31% # Number of insts commited each cycle
system.cpu0.commit.committed_per_cycle::6      6573635      0.27%     98.58% # Number of insts commited each cycle
system.cpu0.commit.committed_per_cycle::7      1706988      0.07%     98.65% # Number of insts commited each cycle
system.cpu0.commit.committed_per_cycle::8     32287340      1.35%    100.00% # Number of insts commited each cycle
system.cpu0.commit.committed_per_cycle::overflows            0      0.00%    100.00% # Number of insts commited each cycle
system.cpu0.commit.committed_per_cycle::min_value            0                       # Number of insts commited each cycle
system.cpu0.commit.committed_per_cycle::max_value            8                       # Number of insts commited each cycle
system.cpu0.commit.committed_per_cycle::total   2394495031                       # Number of insts commited each cycle
system.cpu0.commit.fp_insts                        50                       # Number of committed floating point instructions.
system.cpu0.commit.function_calls            25143423                       # Number of function calls committed.
system.cpu0.commit.int_insts               1273935269                       # Number of committed integer instructions.
system.cpu0.commit.loads                    405171720                       # Number of loads committed
system.cpu0.commit.membars                    4203729                       # Number of memory barriers committed
system.cpu0.commit.op_class_0::No_OpClass      4203735      0.32%      0.32% # Class of committed instruction
system.cpu0.commit.op_class_0::IntAlu       742072776     56.27%     56.59% # Class of committed instruction
system.cpu0.commit.op_class_0::IntMult       11833021      0.90%     57.49% # Class of committed instruction
system.cpu0.commit.op_class_0::IntDiv         2099837      0.16%     57.65% # Class of committed instruction
system.cpu0.commit.op_class_0::FloatAdd             0      0.00%     57.65% # Class of committed instruction
system.cpu0.commit.op_class_0::FloatCmp             4      0.00%     57.65% # Class of committed instruction
system.cpu0.commit.op_class_0::FloatCvt            12      0.00%     57.65% # Class of committed instruction
system.cpu0.commit.op_class_0::FloatMult            0      0.00%     57.65% # Class of committed instruction
system.cpu0.commit.op_class_0::FloatMultAcc            0      0.00%     57.65% # Class of committed instruction
system.cpu0.commit.op_class_0::FloatDiv             2      0.00%     57.65% # Class of committed instruction
system.cpu0.commit.op_class_0::FloatMisc            4      0.00%     57.65% # Class of committed instruction
system.cpu0.commit.op_class_0::FloatSqrt            0      0.00%     57.65% # Class of committed instruction
system.cpu0.commit.op_class_0::SimdAdd              0      0.00%     57.65% # Class of committed instruction
system.cpu0.commit.op_class_0::SimdAddAcc            0      0.00%     57.65% # Class of committed instruction
system.cpu0.commit.op_class_0::SimdAlu              0      0.00%     57.65% # Class of committed instruction
system.cpu0.commit.op_class_0::SimdCmp              0      0.00%     57.65% # Class of committed instruction
system.cpu0.commit.op_class_0::SimdCvt              0      0.00%     57.65% # Class of committed instruction
system.cpu0.commit.op_class_0::SimdMisc             0      0.00%     57.65% # Class of committed instruction
system.cpu0.commit.op_class_0::SimdMult             0      0.00%     57.65% # Class of committed instruction
system.cpu0.commit.op_class_0::SimdMultAcc            0      0.00%     57.65% # Class of committed instruction
system.cpu0.commit.op_class_0::SimdShift            0      0.00%     57.65% # Class of committed instruction
system.cpu0.commit.op_class_0::SimdShiftAcc            0      0.00%     57.65% # Class of committed instruction
system.cpu0.commit.op_class_0::SimdDiv              0      0.00%     57.65% # Class of committed instruction
system.cpu0.commit.op_class_0::SimdSqrt             0      0.00%     57.65% # Class of committed instruction
system.cpu0.commit.op_class_0::SimdFloatAdd            0      0.00%     57.65% # Class of committed instruction
system.cpu0.commit.op_class_0::SimdFloatAlu            0      0.00%     57.65% # Class of committed instruction
system.cpu0.commit.op_class_0::SimdFloatCmp            0      0.00%     57.65% # Class of committed instruction
system.cpu0.commit.op_class_0::SimdFloatCvt            0      0.00%     57.65% # Class of committed instruction
system.cpu0.commit.op_class_0::SimdFloatDiv            0      0.00%     57.65% # Class of committed instruction
system.cpu0.commit.op_class_0::SimdFloatMisc            0      0.00%     57.65% # Class of committed instruction
system.cpu0.commit.op_class_0::SimdFloatMult            0      0.00%     57.65% # Class of committed instruction
system.cpu0.commit.op_class_0::SimdFloatMultAcc            0      0.00%     57.65% # Class of committed instruction
system.cpu0.commit.op_class_0::SimdFloatSqrt            0      0.00%     57.65% # Class of committed instruction
system.cpu0.commit.op_class_0::SimdReduceAdd            0      0.00%     57.65% # Class of committed instruction
system.cpu0.commit.op_class_0::SimdReduceAlu            0      0.00%     57.65% # Class of committed instruction
system.cpu0.commit.op_class_0::SimdReduceCmp            0      0.00%     57.65% # Class of committed instruction
system.cpu0.commit.op_class_0::SimdFloatReduceAdd            0      0.00%     57.65% # Class of committed instruction
system.cpu0.commit.op_class_0::SimdFloatReduceCmp            0      0.00%     57.65% # Class of committed instruction
system.cpu0.commit.op_class_0::SimdAes              0      0.00%     57.65% # Class of committed instruction
system.cpu0.commit.op_class_0::SimdAesMix            0      0.00%     57.65% # Class of committed instruction
system.cpu0.commit.op_class_0::SimdSha1Hash            0      0.00%     57.65% # Class of committed instruction
system.cpu0.commit.op_class_0::SimdSha1Hash2            0      0.00%     57.65% # Class of committed instruction
system.cpu0.commit.op_class_0::SimdSha256Hash            0      0.00%     57.65% # Class of committed instruction
system.cpu0.commit.op_class_0::SimdSha256Hash2            0      0.00%     57.65% # Class of committed instruction
system.cpu0.commit.op_class_0::SimdShaSigma2            0      0.00%     57.65% # Class of committed instruction
system.cpu0.commit.op_class_0::SimdShaSigma3            0      0.00%     57.65% # Class of committed instruction
system.cpu0.commit.op_class_0::SimdPredAlu            0      0.00%     57.65% # Class of committed instruction
system.cpu0.commit.op_class_0::MemRead      407271965     30.89%     88.53% # Class of committed instruction
system.cpu0.commit.op_class_0::MemWrite     151185693     11.47%    100.00% # Class of committed instruction
system.cpu0.commit.op_class_0::FloatMemRead            8      0.00%    100.00% # Class of committed instruction
system.cpu0.commit.op_class_0::FloatMemWrite           20      0.00%    100.00% # Class of committed instruction
system.cpu0.commit.op_class_0::IprAccess            0      0.00%    100.00% # Class of committed instruction
system.cpu0.commit.op_class_0::InstPrefetch            0      0.00%    100.00% # Class of committed instruction
system.cpu0.commit.op_class_0::total       1318667077                       # Class of committed instruction
system.cpu0.commit.refs                     558457686                       # Number of memory references committed
system.cpu0.commit.swp_count                        0                       # Number of s/w prefetches committed
system.cpu0.commit.vec_insts                        0                       # Number of committed Vector instructions.
system.cpu0.committedInsts                 1316563506                       # Number of Instructions Simulated
system.cpu0.committedOps                   1318667077                       # Number of Ops (including micro ops) Simulated
system.cpu0.cpi                              1.996059                       # CPI: Cycles Per Instruction
system.cpu0.cpi_total                        1.996059                       # CPI: Total CPI of All Threads
system.cpu0.decode.BlockedCycles            496271036                       # Number of cycles decode is blocked
system.cpu0.decode.BranchMispred              9034478                       # Number of times decode detected a branch misprediction
system.cpu0.decode.BranchResolved           180842427                       # Number of times decode resolved a branch
system.cpu0.decode.DecodedInsts            1413377064                       # Number of instructions handled by decode
system.cpu0.decode.IdleCycles               926211102                       # Number of cycles decode is idle
system.cpu0.decode.RunCycles                969614665                       # Number of cycles decode is running
system.cpu0.decode.SquashCycles              10951006                       # Number of cycles decode is squashing
system.cpu0.decode.SquashedInsts             13244312                       # Number of squashed instructions handled by decode
system.cpu0.decode.UnblockCycles              6456879                       # Number of cycles decode is unblocking
system.cpu0.dtb.accesses                            0                       # DTB accesses
system.cpu0.dtb.hits                                0                       # DTB hits
system.cpu0.dtb.misses                              0                       # DTB misses
system.cpu0.dtb.read_accesses                       0                       # DTB read accesses
system.cpu0.dtb.read_hits                           0                       # DTB read hits
system.cpu0.dtb.read_misses                         0                       # DTB read misses
system.cpu0.dtb.write_accesses                      0                       # DTB write accesses
system.cpu0.dtb.write_hits                          0                       # DTB write hits
system.cpu0.dtb.write_misses                        0                       # DTB write misses
system.cpu0.fetch.Branches                  352210475                       # Number of branches that fetch encountered
system.cpu0.fetch.CacheLines                240030767                       # Number of cache lines fetched
system.cpu0.fetch.Cycles                   1472547718                       # Number of cycles fetch has run and was not squashing or blocked
system.cpu0.fetch.IcacheSquashes              5171361                       # Number of outstanding Icache misses that were squashed
system.cpu0.fetch.IcacheWaitRetryStallCycles          112                       # Number of stall cycles due to full MSHR
system.cpu0.fetch.Insts                    1440006074                       # Number of instructions fetch has processed
system.cpu0.fetch.MiscStallCycles                  11                       # Number of cycles fetch has spent waiting on interrupts, or bad addresses, or out of MSHRs
system.cpu0.fetch.PendingTrapStallCycles            6                       # Number of stall cycles due to pending traps
system.cpu0.fetch.SquashCycles               39863124                       # Number of cycles fetch has spent squashing
system.cpu0.fetch.branchRate                 0.134025                       # Number of branch fetches per cycle
system.cpu0.fetch.icacheStallCycles         917025279                       # Number of cycles fetch is stalled on an Icache miss
system.cpu0.fetch.predictedBranches         206621608                       # Number of branches that fetch has predicted taken
system.cpu0.fetch.rate                       0.547960                       # Number of inst fetches per cycle
system.cpu0.fetch.rateDist::samples        2409504688                       # Number of instructions fetched each cycle (Total)
system.cpu0.fetch.rateDist::mean             0.598509                       # Number of instructions fetched each cycle (Total)
system.cpu0.fetch.rateDist::stdev            0.887223                       # Number of instructions fetched each cycle (Total)
system.cpu0.fetch.rateDist::underflows              0      0.00%      0.00% # Number of instructions fetched each cycle (Total)
system.cpu0.fetch.rateDist::0              1387044618     57.57%     57.57% # Number of instructions fetched each cycle (Total)
system.cpu0.fetch.rateDist::1               760510014     31.56%     89.13% # Number of instructions fetched each cycle (Total)
system.cpu0.fetch.rateDist::2               146970231      6.10%     95.23% # Number of instructions fetched each cycle (Total)
system.cpu0.fetch.rateDist::3                91954057      3.82%     99.04% # Number of instructions fetched each cycle (Total)
system.cpu0.fetch.rateDist::4                13967758      0.58%     99.62% # Number of instructions fetched each cycle (Total)
system.cpu0.fetch.rateDist::5                 4748832      0.20%     99.82% # Number of instructions fetched each cycle (Total)
system.cpu0.fetch.rateDist::6                   95169      0.00%     99.83% # Number of instructions fetched each cycle (Total)
system.cpu0.fetch.rateDist::7                 2100872      0.09%     99.91% # Number of instructions fetched each cycle (Total)
system.cpu0.fetch.rateDist::8                 2113137      0.09%    100.00% # Number of instructions fetched each cycle (Total)
system.cpu0.fetch.rateDist::overflows               0      0.00%    100.00% # Number of instructions fetched each cycle (Total)
system.cpu0.fetch.rateDist::min_value               0                       # Number of instructions fetched each cycle (Total)
system.cpu0.fetch.rateDist::max_value               8                       # Number of instructions fetched each cycle (Total)
system.cpu0.fetch.rateDist::total          2409504688                       # Number of instructions fetched each cycle (Total)
system.cpu0.fp_regfile_reads                       44                       # number of floating regfile reads
system.cpu0.fp_regfile_writes                      22                       # number of floating regfile writes
system.cpu0.idleCycles                      218433279                       # Total number of cycles that the CPU has spent unscheduled due to idling
system.cpu0.iew.branchMispredicts            11057313                       # Number of branch mispredicts detected at execute
system.cpu0.iew.exec_branches               335002314                       # Number of branches executed
system.cpu0.iew.exec_nop                            0                       # number of nop insts executed
system.cpu0.iew.exec_rate                    0.519526                       # Inst execution rate
system.cpu0.iew.exec_refs                   589756759                       # number of memory reference insts executed
system.cpu0.iew.exec_stores                 155046714                       # Number of stores executed
system.cpu0.iew.exec_swp                            0                       # number of swp insts executed
system.cpu0.iew.iewBlockCycles              376522268                       # Number of cycles IEW is blocking
system.cpu0.iew.iewDispLoadInsts            435688408                       # Number of dispatched load instructions
system.cpu0.iew.iewDispNonSpecInsts           2106460                       # Number of dispatched non-speculative instructions
system.cpu0.iew.iewDispSquashedInsts          9505362                       # Number of squashed instructions skipped by dispatch
system.cpu0.iew.iewDispStoreInsts           155656299                       # Number of dispatched store instructions
system.cpu0.iew.iewDispatchedInsts         1379529454                       # Number of instructions dispatched to IQ
system.cpu0.iew.iewExecLoadInsts            434710045                       # Number of load instructions executed
system.cpu0.iew.iewExecSquashedInsts          8124283                       # Number of squashed instructions skipped in execute
system.cpu0.iew.iewExecutedInsts           1365282583                       # Number of executed instructions
system.cpu0.iew.iewIQFullEvents               2121152                       # Number of times the IQ has become full, causing a stall
system.cpu0.iew.iewIdleCycles                       0                       # Number of cycles IEW is idle
system.cpu0.iew.iewLSQFullEvents             13260138                       # Number of times the LSQ has become full, causing a stall
system.cpu0.iew.iewSquashCycles              10951006                       # Number of cycles IEW is squashing
system.cpu0.iew.iewUnblockCycles             17810825                       # Number of cycles IEW is unblocking
system.cpu0.iew.lsq.thread0.blockedLoads            0                       # Number of blocked loads due to partial load-store forwarding
system.cpu0.iew.lsq.thread0.cacheBlocked       316742                       # Number of times an access to memory failed due to the cache being blocked
system.cpu0.iew.lsq.thread0.forwLoads        24575835                       # Number of loads that had data forwarded from stores
system.cpu0.iew.lsq.thread0.ignoredResponses        49452                       # Number of memory responses ignored because the instruction is squashed
system.cpu0.iew.lsq.thread0.invAddrLoads            0                       # Number of loads ignored due to an invalid address
system.cpu0.iew.lsq.thread0.invAddrSwpfs            0                       # Number of software prefetches ignored due to an invalid address
system.cpu0.iew.lsq.thread0.memOrderViolation        10675                       # Number of memory ordering violations
system.cpu0.iew.lsq.thread0.rescheduledLoads      4460323                       # Number of loads that were rescheduled
system.cpu0.iew.lsq.thread0.squashedLoads     30516688                       # Number of loads squashed
system.cpu0.iew.lsq.thread0.squashedStores      2370322                       # Number of stores squashed
system.cpu0.iew.memOrderViolationEvents         10675                       # Number of memory order violations
system.cpu0.iew.predictedNotTakenIncorrect       767261                       # Number of branches that were predicted not taken incorrectly
system.cpu0.iew.predictedTakenIncorrect      10290052                       # Number of branches that were predicted taken incorrectly
system.cpu0.iew.wb_consumers                622310715                       # num instructions consuming a value
system.cpu0.iew.wb_count                   1351469937                       # cumulative count of insts written-back
system.cpu0.iew.wb_fanout                    0.828113                       # average fanout of values written-back
system.cpu0.iew.wb_producers                515343331                       # num instructions producing a value
system.cpu0.iew.wb_rate                      0.514270                       # insts written-back per cycle
system.cpu0.iew.wb_sent                    1351614410                       # cumulative count of insts sent to commit
system.cpu0.int_regfile_reads              1676625370                       # number of integer regfile reads
system.cpu0.int_regfile_writes              871376310                       # number of integer regfile writes
system.cpu0.ipc                              0.500987                       # IPC: Instructions Per Cycle
system.cpu0.ipc_total                        0.500987                       # IPC: Total IPC of All Threads
system.cpu0.iq.FU_type_0::No_OpClass          4205608      0.31%      0.31% # Type of FU issued
system.cpu0.iq.FU_type_0::IntAlu            762094971     55.49%     55.80% # Type of FU issued
system.cpu0.iq.FU_type_0::IntMult            11848417      0.86%     56.66% # Type of FU issued
system.cpu0.iq.FU_type_0::IntDiv              2100407      0.15%     56.81% # Type of FU issued
system.cpu0.iq.FU_type_0::FloatAdd                  0      0.00%     56.81% # Type of FU issued
system.cpu0.iq.FU_type_0::FloatCmp                  4      0.00%     56.81% # Type of FU issued
system.cpu0.iq.FU_type_0::FloatCvt                 12      0.00%     56.81% # Type of FU issued
system.cpu0.iq.FU_type_0::FloatMult                 0      0.00%     56.81% # Type of FU issued
system.cpu0.iq.FU_type_0::FloatMultAcc              0      0.00%     56.81% # Type of FU issued
system.cpu0.iq.FU_type_0::FloatDiv                  2      0.00%     56.81% # Type of FU issued
system.cpu0.iq.FU_type_0::FloatMisc                 4      0.00%     56.81% # Type of FU issued
system.cpu0.iq.FU_type_0::FloatSqrt                 0      0.00%     56.81% # Type of FU issued
system.cpu0.iq.FU_type_0::SimdAdd                   0      0.00%     56.81% # Type of FU issued
system.cpu0.iq.FU_type_0::SimdAddAcc                0      0.00%     56.81% # Type of FU issued
system.cpu0.iq.FU_type_0::SimdAlu                   0      0.00%     56.81% # Type of FU issued
system.cpu0.iq.FU_type_0::SimdCmp                   0      0.00%     56.81% # Type of FU issued
system.cpu0.iq.FU_type_0::SimdCvt                   0      0.00%     56.81% # Type of FU issued
system.cpu0.iq.FU_type_0::SimdMisc                  0      0.00%     56.81% # Type of FU issued
system.cpu0.iq.FU_type_0::SimdMult                  0      0.00%     56.81% # Type of FU issued
system.cpu0.iq.FU_type_0::SimdMultAcc               0      0.00%     56.81% # Type of FU issued
system.cpu0.iq.FU_type_0::SimdShift                 0      0.00%     56.81% # Type of FU issued
system.cpu0.iq.FU_type_0::SimdShiftAcc              0      0.00%     56.81% # Type of FU issued
system.cpu0.iq.FU_type_0::SimdDiv                   0      0.00%     56.81% # Type of FU issued
system.cpu0.iq.FU_type_0::SimdSqrt                  0      0.00%     56.81% # Type of FU issued
system.cpu0.iq.FU_type_0::SimdFloatAdd              0      0.00%     56.81% # Type of FU issued
system.cpu0.iq.FU_type_0::SimdFloatAlu              0      0.00%     56.81% # Type of FU issued
system.cpu0.iq.FU_type_0::SimdFloatCmp              0      0.00%     56.81% # Type of FU issued
system.cpu0.iq.FU_type_0::SimdFloatCvt              0      0.00%     56.81% # Type of FU issued
system.cpu0.iq.FU_type_0::SimdFloatDiv              0      0.00%     56.81% # Type of FU issued
system.cpu0.iq.FU_type_0::SimdFloatMisc             0      0.00%     56.81% # Type of FU issued
system.cpu0.iq.FU_type_0::SimdFloatMult             0      0.00%     56.81% # Type of FU issued
system.cpu0.iq.FU_type_0::SimdFloatMultAcc            0      0.00%     56.81% # Type of FU issued
system.cpu0.iq.FU_type_0::SimdFloatSqrt             0      0.00%     56.81% # Type of FU issued
system.cpu0.iq.FU_type_0::SimdReduceAdd             0      0.00%     56.81% # Type of FU issued
system.cpu0.iq.FU_type_0::SimdReduceAlu             0      0.00%     56.81% # Type of FU issued
system.cpu0.iq.FU_type_0::SimdReduceCmp             0      0.00%     56.81% # Type of FU issued
system.cpu0.iq.FU_type_0::SimdFloatReduceAdd            0      0.00%     56.81% # Type of FU issued
system.cpu0.iq.FU_type_0::SimdFloatReduceCmp            0      0.00%     56.81% # Type of FU issued
system.cpu0.iq.FU_type_0::SimdAes                   0      0.00%     56.81% # Type of FU issued
system.cpu0.iq.FU_type_0::SimdAesMix                0      0.00%     56.81% # Type of FU issued
system.cpu0.iq.FU_type_0::SimdSha1Hash              0      0.00%     56.81% # Type of FU issued
system.cpu0.iq.FU_type_0::SimdSha1Hash2             0      0.00%     56.81% # Type of FU issued
system.cpu0.iq.FU_type_0::SimdSha256Hash            0      0.00%     56.81% # Type of FU issued
system.cpu0.iq.FU_type_0::SimdSha256Hash2            0      0.00%     56.81% # Type of FU issued
system.cpu0.iq.FU_type_0::SimdShaSigma2             0      0.00%     56.81% # Type of FU issued
system.cpu0.iq.FU_type_0::SimdShaSigma3             0      0.00%     56.81% # Type of FU issued
system.cpu0.iq.FU_type_0::SimdPredAlu               0      0.00%     56.81% # Type of FU issued
system.cpu0.iq.FU_type_0::MemRead           440078323     32.04%     88.85% # Type of FU issued
system.cpu0.iq.FU_type_0::MemWrite          153079091     11.15%    100.00% # Type of FU issued
system.cpu0.iq.FU_type_0::FloatMemRead              8      0.00%    100.00% # Type of FU issued
system.cpu0.iq.FU_type_0::FloatMemWrite            20      0.00%    100.00% # Type of FU issued
system.cpu0.iq.FU_type_0::IprAccess                 0      0.00%    100.00% # Type of FU issued
system.cpu0.iq.FU_type_0::InstPrefetch              0      0.00%    100.00% # Type of FU issued
system.cpu0.iq.FU_type_0::total            1373406867                       # Type of FU issued
system.cpu0.iq.fp_alu_accesses                     52                       # Number of floating point alu accesses
system.cpu0.iq.fp_inst_queue_reads                102                       # Number of floating instruction queue reads
system.cpu0.iq.fp_inst_queue_wakeup_accesses           50                       # Number of floating instruction queue wakeup accesses
system.cpu0.iq.fp_inst_queue_writes                50                       # Number of floating instruction queue writes
system.cpu0.iq.fu_busy_cnt                    3356080                       # FU busy when requested
system.cpu0.iq.fu_busy_rate                  0.002444                       # FU busy rate (busy events/executed inst)
system.cpu0.iq.fu_full::No_OpClass                  0      0.00%      0.00% # attempts to use FU when none available
system.cpu0.iq.fu_full::IntAlu                 735882     21.93%     21.93% # attempts to use FU when none available
system.cpu0.iq.fu_full::IntMult                     0      0.00%     21.93% # attempts to use FU when none available
system.cpu0.iq.fu_full::IntDiv                      0      0.00%     21.93% # attempts to use FU when none available
system.cpu0.iq.fu_full::FloatAdd                    0      0.00%     21.93% # attempts to use FU when none available
system.cpu0.iq.fu_full::FloatCmp                    0      0.00%     21.93% # attempts to use FU when none available
system.cpu0.iq.fu_full::FloatCvt                    0      0.00%     21.93% # attempts to use FU when none available
system.cpu0.iq.fu_full::FloatMult                   0      0.00%     21.93% # attempts to use FU when none available
system.cpu0.iq.fu_full::FloatMultAcc                0      0.00%     21.93% # attempts to use FU when none available
system.cpu0.iq.fu_full::FloatDiv                    0      0.00%     21.93% # attempts to use FU when none available
system.cpu0.iq.fu_full::FloatMisc                   0      0.00%     21.93% # attempts to use FU when none available
system.cpu0.iq.fu_full::FloatSqrt                   0      0.00%     21.93% # attempts to use FU when none available
system.cpu0.iq.fu_full::SimdAdd                     0      0.00%     21.93% # attempts to use FU when none available
system.cpu0.iq.fu_full::SimdAddAcc                  0      0.00%     21.93% # attempts to use FU when none available
system.cpu0.iq.fu_full::SimdAlu                     0      0.00%     21.93% # attempts to use FU when none available
system.cpu0.iq.fu_full::SimdCmp                     0      0.00%     21.93% # attempts to use FU when none available
system.cpu0.iq.fu_full::SimdCvt                     0      0.00%     21.93% # attempts to use FU when none available
system.cpu0.iq.fu_full::SimdMisc                    0      0.00%     21.93% # attempts to use FU when none available
system.cpu0.iq.fu_full::SimdMult                    0      0.00%     21.93% # attempts to use FU when none available
system.cpu0.iq.fu_full::SimdMultAcc                 0      0.00%     21.93% # attempts to use FU when none available
system.cpu0.iq.fu_full::SimdShift                   0      0.00%     21.93% # attempts to use FU when none available
system.cpu0.iq.fu_full::SimdShiftAcc                0      0.00%     21.93% # attempts to use FU when none available
system.cpu0.iq.fu_full::SimdDiv                     0      0.00%     21.93% # attempts to use FU when none available
system.cpu0.iq.fu_full::SimdSqrt                    0      0.00%     21.93% # attempts to use FU when none available
system.cpu0.iq.fu_full::SimdFloatAdd                0      0.00%     21.93% # attempts to use FU when none available
system.cpu0.iq.fu_full::SimdFloatAlu                0      0.00%     21.93% # attempts to use FU when none available
system.cpu0.iq.fu_full::SimdFloatCmp                0      0.00%     21.93% # attempts to use FU when none available
system.cpu0.iq.fu_full::SimdFloatCvt                0      0.00%     21.93% # attempts to use FU when none available
system.cpu0.iq.fu_full::SimdFloatDiv                0      0.00%     21.93% # attempts to use FU when none available
system.cpu0.iq.fu_full::SimdFloatMisc               0      0.00%     21.93% # attempts to use FU when none available
system.cpu0.iq.fu_full::SimdFloatMult               0      0.00%     21.93% # attempts to use FU when none available
system.cpu0.iq.fu_full::SimdFloatMultAcc            0      0.00%     21.93% # attempts to use FU when none available
system.cpu0.iq.fu_full::SimdFloatSqrt               0      0.00%     21.93% # attempts to use FU when none available
system.cpu0.iq.fu_full::SimdReduceAdd               0      0.00%     21.93% # attempts to use FU when none available
system.cpu0.iq.fu_full::SimdReduceAlu               0      0.00%     21.93% # attempts to use FU when none available
system.cpu0.iq.fu_full::SimdReduceCmp               0      0.00%     21.93% # attempts to use FU when none available
system.cpu0.iq.fu_full::SimdFloatReduceAdd            0      0.00%     21.93% # attempts to use FU when none available
system.cpu0.iq.fu_full::SimdFloatReduceCmp            0      0.00%     21.93% # attempts to use FU when none available
system.cpu0.iq.fu_full::SimdAes                     0      0.00%     21.93% # attempts to use FU when none available
system.cpu0.iq.fu_full::SimdAesMix                  0      0.00%     21.93% # attempts to use FU when none available
system.cpu0.iq.fu_full::SimdSha1Hash                0      0.00%     21.93% # attempts to use FU when none available
system.cpu0.iq.fu_full::SimdSha1Hash2               0      0.00%     21.93% # attempts to use FU when none available
system.cpu0.iq.fu_full::SimdSha256Hash              0      0.00%     21.93% # attempts to use FU when none available
system.cpu0.iq.fu_full::SimdSha256Hash2             0      0.00%     21.93% # attempts to use FU when none available
system.cpu0.iq.fu_full::SimdShaSigma2               0      0.00%     21.93% # attempts to use FU when none available
system.cpu0.iq.fu_full::SimdShaSigma3               0      0.00%     21.93% # attempts to use FU when none available
system.cpu0.iq.fu_full::SimdPredAlu                 0      0.00%     21.93% # attempts to use FU when none available
system.cpu0.iq.fu_full::MemRead               2064376     61.51%     83.44% # attempts to use FU when none available
system.cpu0.iq.fu_full::MemWrite               555820     16.56%    100.00% # attempts to use FU when none available
system.cpu0.iq.fu_full::FloatMemRead                0      0.00%    100.00% # attempts to use FU when none available
system.cpu0.iq.fu_full::FloatMemWrite               2      0.00%    100.00% # attempts to use FU when none available
system.cpu0.iq.fu_full::IprAccess                   0      0.00%    100.00% # attempts to use FU when none available
system.cpu0.iq.fu_full::InstPrefetch                0      0.00%    100.00% # attempts to use FU when none available
system.cpu0.iq.int_alu_accesses            1372557287                       # Number of integer alu accesses
system.cpu0.iq.int_inst_queue_reads        5159931421                       # Number of integer instruction queue reads
system.cpu0.iq.int_inst_queue_wakeup_accesses   1351469887                       # Number of integer instruction queue wakeup accesses
system.cpu0.iq.int_inst_queue_writes       1440401411                       # Number of integer instruction queue writes
system.cpu0.iq.iqInstsAdded                1373219112                       # Number of instructions added to the IQ (excludes non-spec)
system.cpu0.iq.iqInstsIssued               1373406867                       # Number of instructions issued
system.cpu0.iq.iqNonSpecInstsAdded            6310342                       # Number of non-speculative instructions added to the IQ
system.cpu0.iq.iqSquashedInstsExamined       60862292                       # Number of squashed instructions iterated over during squash; mainly for profiling
system.cpu0.iq.iqSquashedInstsIssued           257022                       # Number of squashed instructions issued
system.cpu0.iq.iqSquashedNonSpecRemoved           631                       # Number of squashed non-spec instructions that were removed
system.cpu0.iq.iqSquashedOperandsExamined     28080466                       # Number of squashed operands that are examined and possibly removed from graph
system.cpu0.iq.issued_per_cycle::samples   2409504688                       # Number of insts issued each cycle
system.cpu0.iq.issued_per_cycle::mean        0.569996                       # Number of insts issued each cycle
system.cpu0.iq.issued_per_cycle::stdev       0.833575                       # Number of insts issued each cycle
system.cpu0.iq.issued_per_cycle::underflows            0      0.00%      0.00% # Number of insts issued each cycle
system.cpu0.iq.issued_per_cycle::0         1418923308     58.89%     58.89% # Number of insts issued each cycle
system.cpu0.iq.issued_per_cycle::1          716643960     29.74%     88.63% # Number of insts issued each cycle
system.cpu0.iq.issued_per_cycle::2          195831334      8.13%     96.76% # Number of insts issued each cycle
system.cpu0.iq.issued_per_cycle::3           59295652      2.46%     99.22% # Number of insts issued each cycle
system.cpu0.iq.issued_per_cycle::4           12080642      0.50%     99.72% # Number of insts issued each cycle
system.cpu0.iq.issued_per_cycle::5            3260009      0.14%     99.86% # Number of insts issued each cycle
system.cpu0.iq.issued_per_cycle::6            2050708      0.09%     99.94% # Number of insts issued each cycle
system.cpu0.iq.issued_per_cycle::7            1066178      0.04%     99.99% # Number of insts issued each cycle
system.cpu0.iq.issued_per_cycle::8             352897      0.01%    100.00% # Number of insts issued each cycle
system.cpu0.iq.issued_per_cycle::overflows            0      0.00%    100.00% # Number of insts issued each cycle
system.cpu0.iq.issued_per_cycle::min_value            0                       # Number of insts issued each cycle
system.cpu0.iq.issued_per_cycle::max_value            8                       # Number of insts issued each cycle
system.cpu0.iq.issued_per_cycle::total     2409504688                       # Number of insts issued each cycle
system.cpu0.iq.rate                          0.522618                       # Inst issue rate
system.cpu0.iq.vec_alu_accesses                     0                       # Number of vector alu accesses
system.cpu0.iq.vec_inst_queue_reads                 0                       # Number of vector instruction queue reads
system.cpu0.iq.vec_inst_queue_wakeup_accesses            0                       # Number of vector instruction queue wakeup accesses
system.cpu0.iq.vec_inst_queue_writes                0                       # Number of vector instruction queue writes
system.cpu0.itb.accesses                            0                       # DTB accesses
system.cpu0.itb.hits                                0                       # DTB hits
system.cpu0.itb.misses                              0                       # DTB misses
system.cpu0.itb.read_accesses                       0                       # DTB read accesses
system.cpu0.itb.read_hits                           0                       # DTB read hits
system.cpu0.itb.read_misses                         0                       # DTB read misses
system.cpu0.itb.write_accesses                      0                       # DTB write accesses
system.cpu0.itb.write_hits                          0                       # DTB write hits
system.cpu0.itb.write_misses                        0                       # DTB write misses
system.cpu0.memDep0.conflictingLoads         20812118                       # Number of conflicting loads.
system.cpu0.memDep0.conflictingStores         1506896                       # Number of conflicting stores.
system.cpu0.memDep0.insertedLoads           435688408                       # Number of loads inserted to the mem dependence unit.
system.cpu0.memDep0.insertedStores          155656299                       # Number of stores inserted to the mem dependence unit.
system.cpu0.misc_regfile_reads                   1890                       # number of misc regfile reads
system.cpu0.misc_regfile_writes                    22                       # number of misc regfile writes
system.cpu0.numCycles                      2627937967                       # number of cpu cycles simulated
system.cpu0.numWorkItemsCompleted                   0                       # number of work items this cpu completed
system.cpu0.numWorkItemsStarted                     0                       # number of work items this cpu started
system.cpu0.quiesceCycles                     9243879                       # Total number of cycles that CPU has spent quiesced or waiting for an interrupt
system.cpu0.rename.BlockCycles              409666173                       # Number of cycles rename is blocking
system.cpu0.rename.CommittedMaps            845207309                       # Number of HB maps that are committed
system.cpu0.rename.IQFullEvents              14607019                       # Number of times rename has blocked due to IQ full
system.cpu0.rename.IdleCycles               940128866                       # Number of cycles rename is idle
system.cpu0.rename.LQFullEvents              28201561                       # Number of times rename has blocked due to LQ full
system.cpu0.rename.ROBFullEvents                21569                       # Number of times rename has blocked due to ROB full
system.cpu0.rename.RenameLookups           1717932264                       # Number of register rename lookups that rename has made
system.cpu0.rename.RenamedInsts            1400704663                       # Number of instructions processed by rename
system.cpu0.rename.RenamedOperands          913666865                       # Number of destination operands rename has renamed
system.cpu0.rename.RunCycles                960829517                       # Number of cycles rename is running
system.cpu0.rename.SQFullEvents              44212113                       # Number of times rename has blocked due to SQ full
system.cpu0.rename.SquashCycles              10951006                       # Number of cycles rename is squashing
system.cpu0.rename.UnblockCycles             87509991                       # Number of cycles rename is unblocking
system.cpu0.rename.UndoneMaps                68459489                       # Number of HB maps that are undone due to squashing
system.cpu0.rename.fp_rename_lookups               44                       # Number of floating rename lookups
system.cpu0.rename.int_rename_lookups      1717932220                       # Number of integer rename lookups
system.cpu0.rename.serializeStallCycles        419135                       # count of cycles rename stalled for serializing inst
system.cpu0.rename.serializingInsts              5884                       # count of serializing insts renamed
system.cpu0.rename.skidInsts                 33395963                       # count of insts added to the skid buffer
system.cpu0.rename.tempSerializingInsts          5884                       # count of temporary serializing insts renamed
system.cpu0.rob.rob_reads                  3741790646                       # The number of ROB reads
system.cpu0.rob.rob_writes                 2774259607                       # The number of ROB writes
system.cpu0.timesIdled                       33232765                       # Number of times that the entire CPU went into an idle state and unscheduled itself
system.cpu0.workload.numSyscalls                 1857                       # Number of system calls
system.cpu1.branchPred.BTBCorrect                   0                       # Number of correct BTB predictions (this stat may not work properly.
system.cpu1.branchPred.BTBHitPct            90.885266                       # BTB Hit Percentage
system.cpu1.branchPred.BTBHits               20926288                       # Number of BTB hits
system.cpu1.branchPred.BTBLookups            23024951                       # Number of BTB lookups
system.cpu1.branchPred.RASInCorrect                 0                       # Number of incorrect RAS predictions.
system.cpu1.branchPred.condIncorrect          2798715                       # Number of conditional branches incorrect
system.cpu1.branchPred.condPredicted         31148097                       # Number of conditional branches predicted
system.cpu1.branchPred.indirectHits           1070323                       # Number of indirect target hits.
system.cpu1.branchPred.indirectLookups        1091029                       # Number of indirect predictor lookups.
system.cpu1.branchPred.indirectMisses           20706                       # Number of indirect misses.
system.cpu1.branchPred.lookups               35733375                       # Number of BP lookups
system.cpu1.branchPred.usedRAS                      0                       # Number of times the RAS was used to get a target.
system.cpu1.branchPredindirectMispredicted        47860                       # Number of mispredicted indirect branches.
system.cpu1.commit.amos                       2099996                       # Number of atomic instructions committed
system.cpu1.commit.branchMispredicts          1989830                       # The number of times a branch was mispredicted
system.cpu1.commit.branches                  28114460                       # Number of branches committed
system.cpu1.commit.bw_lim_events              3898865                       # number cycles where commit BW limit reached
system.cpu1.commit.commitNonSpecStalls        6300656                       # The number of times commit has been forced to stall to communicate backwards
system.cpu1.commit.commitSquashedInsts       16429199                       # The number of squashed insts skipped by commit
system.cpu1.commit.committedInsts           120040219                       # Number of instructions committed
system.cpu1.commit.committedOps             122140392                       # Number of ops (including micro ops) committed
system.cpu1.commit.committed_per_cycle::samples    487633507                       # Number of insts commited each cycle
system.cpu1.commit.committed_per_cycle::mean     0.250476                       # Number of insts commited each cycle
system.cpu1.commit.committed_per_cycle::stdev     1.008754                       # Number of insts commited each cycle
system.cpu1.commit.committed_per_cycle::underflows            0      0.00%      0.00% # Number of insts commited each cycle
system.cpu1.commit.committed_per_cycle::0    438619002     89.95%     89.95% # Number of insts commited each cycle
system.cpu1.commit.committed_per_cycle::1     24261811      4.98%     94.92% # Number of insts commited each cycle
system.cpu1.commit.committed_per_cycle::2      8255224      1.69%     96.62% # Number of insts commited each cycle
system.cpu1.commit.committed_per_cycle::3      6878308      1.41%     98.03% # Number of insts commited each cycle
system.cpu1.commit.committed_per_cycle::4      2044927      0.42%     98.45% # Number of insts commited each cycle
system.cpu1.commit.committed_per_cycle::5      1009791      0.21%     98.65% # Number of insts commited each cycle
system.cpu1.commit.committed_per_cycle::6      2345427      0.48%     99.13% # Number of insts commited each cycle
system.cpu1.commit.committed_per_cycle::7       320152      0.07%     99.20% # Number of insts commited each cycle
system.cpu1.commit.committed_per_cycle::8      3898865      0.80%    100.00% # Number of insts commited each cycle
system.cpu1.commit.committed_per_cycle::overflows            0      0.00%    100.00% # Number of insts commited each cycle
system.cpu1.commit.committed_per_cycle::min_value            0                       # Number of insts commited each cycle
system.cpu1.commit.committed_per_cycle::max_value            8                       # Number of insts commited each cycle
system.cpu1.commit.committed_per_cycle::total    487633507                       # Number of insts commited each cycle
system.cpu1.commit.fp_insts                        12                       # Number of committed floating point instructions.
system.cpu1.commit.function_calls             1797293                       # Number of function calls committed.
system.cpu1.commit.int_insts                116577936                       # Number of committed integer instructions.
system.cpu1.commit.loads                     30171971                       # Number of loads committed
system.cpu1.commit.membars                    4200117                       # Number of memory barriers committed
system.cpu1.commit.op_class_0::No_OpClass      4200117      3.44%      3.44% # Class of committed instruction
system.cpu1.commit.op_class_0::IntAlu        76650831     62.76%     66.20% # Class of committed instruction
system.cpu1.commit.op_class_0::IntMult             44      0.00%     66.20% # Class of committed instruction
system.cpu1.commit.op_class_0::IntDiv              88      0.00%     66.20% # Class of committed instruction
system.cpu1.commit.op_class_0::FloatAdd             0      0.00%     66.20% # Class of committed instruction
system.cpu1.commit.op_class_0::FloatCmp             0      0.00%     66.20% # Class of committed instruction
system.cpu1.commit.op_class_0::FloatCvt             0      0.00%     66.20% # Class of committed instruction
system.cpu1.commit.op_class_0::FloatMult            0      0.00%     66.20% # Class of committed instruction
system.cpu1.commit.op_class_0::FloatMultAcc            0      0.00%     66.20% # Class of committed instruction
system.cpu1.commit.op_class_0::FloatDiv             0      0.00%     66.20% # Class of committed instruction
system.cpu1.commit.op_class_0::FloatMisc            0      0.00%     66.20% # Class of committed instruction
system.cpu1.commit.op_class_0::FloatSqrt            0      0.00%     66.20% # Class of committed instruction
system.cpu1.commit.op_class_0::SimdAdd              0      0.00%     66.20% # Class of committed instruction
system.cpu1.commit.op_class_0::SimdAddAcc            0      0.00%     66.20% # Class of committed instruction
system.cpu1.commit.op_class_0::SimdAlu              0      0.00%     66.20% # Class of committed instruction
system.cpu1.commit.op_class_0::SimdCmp              0      0.00%     66.20% # Class of committed instruction
system.cpu1.commit.op_class_0::SimdCvt              0      0.00%     66.20% # Class of committed instruction
system.cpu1.commit.op_class_0::SimdMisc             0      0.00%     66.20% # Class of committed instruction
system.cpu1.commit.op_class_0::SimdMult             0      0.00%     66.20% # Class of committed instruction
system.cpu1.commit.op_class_0::SimdMultAcc            0      0.00%     66.20% # Class of committed instruction
system.cpu1.commit.op_class_0::SimdShift            0      0.00%     66.20% # Class of committed instruction
system.cpu1.commit.op_class_0::SimdShiftAcc            0      0.00%     66.20% # Class of committed instruction
system.cpu1.commit.op_class_0::SimdDiv              0      0.00%     66.20% # Class of committed instruction
system.cpu1.commit.op_class_0::SimdSqrt             0      0.00%     66.20% # Class of committed instruction
system.cpu1.commit.op_class_0::SimdFloatAdd            0      0.00%     66.20% # Class of committed instruction
system.cpu1.commit.op_class_0::SimdFloatAlu            0      0.00%     66.20% # Class of committed instruction
system.cpu1.commit.op_class_0::SimdFloatCmp            0      0.00%     66.20% # Class of committed instruction
system.cpu1.commit.op_class_0::SimdFloatCvt            0      0.00%     66.20% # Class of committed instruction
system.cpu1.commit.op_class_0::SimdFloatDiv            0      0.00%     66.20% # Class of committed instruction
system.cpu1.commit.op_class_0::SimdFloatMisc            0      0.00%     66.20% # Class of committed instruction
system.cpu1.commit.op_class_0::SimdFloatMult            0      0.00%     66.20% # Class of committed instruction
system.cpu1.commit.op_class_0::SimdFloatMultAcc            0      0.00%     66.20% # Class of committed instruction
system.cpu1.commit.op_class_0::SimdFloatSqrt            0      0.00%     66.20% # Class of committed instruction
system.cpu1.commit.op_class_0::SimdReduceAdd            0      0.00%     66.20% # Class of committed instruction
system.cpu1.commit.op_class_0::SimdReduceAlu            0      0.00%     66.20% # Class of committed instruction
system.cpu1.commit.op_class_0::SimdReduceCmp            0      0.00%     66.20% # Class of committed instruction
system.cpu1.commit.op_class_0::SimdFloatReduceAdd            0      0.00%     66.20% # Class of committed instruction
system.cpu1.commit.op_class_0::SimdFloatReduceCmp            0      0.00%     66.20% # Class of committed instruction
system.cpu1.commit.op_class_0::SimdAes              0      0.00%     66.20% # Class of committed instruction
system.cpu1.commit.op_class_0::SimdAesMix            0      0.00%     66.20% # Class of committed instruction
system.cpu1.commit.op_class_0::SimdSha1Hash            0      0.00%     66.20% # Class of committed instruction
system.cpu1.commit.op_class_0::SimdSha1Hash2            0      0.00%     66.20% # Class of committed instruction
system.cpu1.commit.op_class_0::SimdSha256Hash            0      0.00%     66.20% # Class of committed instruction
system.cpu1.commit.op_class_0::SimdSha256Hash2            0      0.00%     66.20% # Class of committed instruction
system.cpu1.commit.op_class_0::SimdShaSigma2            0      0.00%     66.20% # Class of committed instruction
system.cpu1.commit.op_class_0::SimdShaSigma3            0      0.00%     66.20% # Class of committed instruction
system.cpu1.commit.op_class_0::SimdPredAlu            0      0.00%     66.20% # Class of committed instruction
system.cpu1.commit.op_class_0::MemRead       32271967     26.42%     92.62% # Class of committed instruction
system.cpu1.commit.op_class_0::MemWrite       9017333      7.38%    100.00% # Class of committed instruction
system.cpu1.commit.op_class_0::FloatMemRead            0      0.00%    100.00% # Class of committed instruction
system.cpu1.commit.op_class_0::FloatMemWrite           12      0.00%    100.00% # Class of committed instruction
system.cpu1.commit.op_class_0::IprAccess            0      0.00%    100.00% # Class of committed instruction
system.cpu1.commit.op_class_0::InstPrefetch            0      0.00%    100.00% # Class of committed instruction
system.cpu1.commit.op_class_0::total        122140392                       # Class of committed instruction
system.cpu1.commit.refs                      41289312                       # Number of memory references committed
system.cpu1.commit.swp_count                        0                       # Number of s/w prefetches committed
system.cpu1.commit.vec_insts                        0                       # Number of committed Vector instructions.
system.cpu1.committedInsts                  120040219                       # Number of Instructions Simulated
system.cpu1.committedOps                    122140392                       # Number of Ops (including micro ops) Simulated
system.cpu1.cpi                              4.094698                       # CPI: Cycles Per Instruction
system.cpu1.cpi_total                        4.094698                       # CPI: Total CPI of All Threads
system.cpu1.decode.BlockedCycles            395587080                       # Number of cycles decode is blocked
system.cpu1.decode.BranchMispred               859378                       # Number of times decode detected a branch misprediction
system.cpu1.decode.BranchResolved            19864308                       # Number of times decode resolved a branch
system.cpu1.decode.DecodedInsts             145637427                       # Number of instructions handled by decode
system.cpu1.decode.IdleCycles                23225417                       # Number of cycles decode is idle
system.cpu1.decode.RunCycles                 64992791                       # Number of cycles decode is running
system.cpu1.decode.SquashCycles               1991452                       # Number of cycles decode is squashing
system.cpu1.decode.SquashedInsts              2077211                       # Number of squashed instructions handled by decode
system.cpu1.decode.UnblockCycles              5196945                       # Number of cycles decode is unblocking
system.cpu1.dtb.accesses                            0                       # DTB accesses
system.cpu1.dtb.hits                                0                       # DTB hits
system.cpu1.dtb.misses                              0                       # DTB misses
system.cpu1.dtb.read_accesses                       0                       # DTB read accesses
system.cpu1.dtb.read_hits                           0                       # DTB read hits
system.cpu1.dtb.read_misses                         0                       # DTB read misses
system.cpu1.dtb.write_accesses                      0                       # DTB write accesses
system.cpu1.dtb.write_hits                          0                       # DTB write hits
system.cpu1.dtb.write_misses                        0                       # DTB write misses
system.cpu1.fetch.Branches                   35733375                       # Number of branches that fetch encountered
system.cpu1.fetch.CacheLines                 21641391                       # Number of cache lines fetched
system.cpu1.fetch.Cycles                    464485679                       # Number of cycles fetch has run and was not squashing or blocked
system.cpu1.fetch.IcacheSquashes               243679                       # Number of outstanding Icache misses that were squashed
system.cpu1.fetch.Insts                     151035036                       # Number of instructions fetch has processed
system.cpu1.fetch.MiscStallCycles                   1                       # Number of cycles fetch has spent waiting on interrupts, or bad addresses, or out of MSHRs
system.cpu1.fetch.SquashCycles                5600674                       # Number of cycles fetch has spent squashing
system.cpu1.fetch.branchRate                 0.072698                       # Number of branch fetches per cycle
system.cpu1.fetch.icacheStallCycles          23707668                       # Number of cycles fetch is stalled on an Icache miss
system.cpu1.fetch.predictedBranches          21996611                       # Number of branches that fetch has predicted taken
system.cpu1.fetch.rate                       0.307276                       # Number of inst fetches per cycle
system.cpu1.fetch.rateDist::samples         490993685                       # Number of instructions fetched each cycle (Total)
system.cpu1.fetch.rateDist::mean             0.311889                       # Number of instructions fetched each cycle (Total)
system.cpu1.fetch.rateDist::stdev            0.731447                       # Number of instructions fetched each cycle (Total)
system.cpu1.fetch.rateDist::underflows              0      0.00%      0.00% # Number of instructions fetched each cycle (Total)
system.cpu1.fetch.rateDist::0               392484675     79.94%     79.94% # Number of instructions fetched each cycle (Total)
system.cpu1.fetch.rateDist::1                63145418     12.86%     92.80% # Number of instructions fetched each cycle (Total)
system.cpu1.fetch.rateDist::2                20211286      4.12%     96.91% # Number of instructions fetched each cycle (Total)
system.cpu1.fetch.rateDist::3                11637596      2.37%     99.28% # Number of instructions fetched each cycle (Total)
system.cpu1.fetch.rateDist::4                 2978959      0.61%     99.89% # Number of instructions fetched each cycle (Total)
system.cpu1.fetch.rateDist::5                  476073      0.10%     99.99% # Number of instructions fetched each cycle (Total)
system.cpu1.fetch.rateDist::6                   59392      0.01%    100.00% # Number of instructions fetched each cycle (Total)
system.cpu1.fetch.rateDist::7                       6      0.00%    100.00% # Number of instructions fetched each cycle (Total)
system.cpu1.fetch.rateDist::8                     280      0.00%    100.00% # Number of instructions fetched each cycle (Total)
system.cpu1.fetch.rateDist::overflows               0      0.00%    100.00% # Number of instructions fetched each cycle (Total)
system.cpu1.fetch.rateDist::min_value               0                       # Number of instructions fetched each cycle (Total)
system.cpu1.fetch.rateDist::max_value               8                       # Number of instructions fetched each cycle (Total)
system.cpu1.fetch.rateDist::total           490993685                       # Number of instructions fetched each cycle (Total)
system.cpu1.fp_regfile_reads                       12                       # number of floating regfile reads
system.cpu1.idleCycles                         534733                       # Total number of cycles that the CPU has spent unscheduled due to idling
system.cpu1.iew.branchMispredicts             2070162                       # Number of branch mispredicts detected at execute
system.cpu1.iew.exec_branches                30589637                       # Number of branches executed
system.cpu1.iew.exec_nop                            0                       # number of nop insts executed
system.cpu1.iew.exec_rate                    0.271477                       # Inst execution rate
system.cpu1.iew.exec_refs                    45434675                       # number of memory reference insts executed
system.cpu1.iew.exec_stores                  11510309                       # Number of stores executed
system.cpu1.iew.exec_swp                            0                       # number of swp insts executed
system.cpu1.iew.iewBlockCycles              321732102                       # Number of cycles IEW is blocking
system.cpu1.iew.iewDispLoadInsts             34383618                       # Number of dispatched load instructions
system.cpu1.iew.iewDispNonSpecInsts           2100687                       # Number of dispatched non-speculative instructions
system.cpu1.iew.iewDispSquashedInsts          2354863                       # Number of squashed instructions skipped by dispatch
system.cpu1.iew.iewDispStoreInsts            11823064                       # Number of dispatched store instructions
system.cpu1.iew.iewDispatchedInsts          138527887                       # Number of instructions dispatched to IQ
system.cpu1.iew.iewExecLoadInsts             33924366                       # Number of load instructions executed
system.cpu1.iew.iewExecSquashedInsts          2125151                       # Number of squashed instructions skipped in execute
system.cpu1.iew.iewExecutedInsts            133438461                       # Number of executed instructions
system.cpu1.iew.iewIQFullEvents               1914780                       # Number of times the IQ has become full, causing a stall
system.cpu1.iew.iewIdleCycles                       0                       # Number of cycles IEW is idle
system.cpu1.iew.iewLSQFullEvents              6651918                       # Number of times the LSQ has become full, causing a stall
system.cpu1.iew.iewSquashCycles               1991452                       # Number of cycles IEW is squashing
system.cpu1.iew.iewUnblockCycles             11116031                       # Number of cycles IEW is unblocking
system.cpu1.iew.lsq.thread0.blockedLoads            0                       # Number of blocked loads due to partial load-store forwarding
system.cpu1.iew.lsq.thread0.cacheBlocked       171621                       # Number of times an access to memory failed due to the cache being blocked
system.cpu1.iew.lsq.thread0.forwLoads          942115                       # Number of loads that had data forwarded from stores
system.cpu1.iew.lsq.thread0.ignoredResponses        31190                       # Number of memory responses ignored because the instruction is squashed
system.cpu1.iew.lsq.thread0.invAddrLoads            0                       # Number of loads ignored due to an invalid address
system.cpu1.iew.lsq.thread0.invAddrSwpfs            0                       # Number of software prefetches ignored due to an invalid address
system.cpu1.iew.lsq.thread0.memOrderViolation         2237                       # Number of memory ordering violations
system.cpu1.iew.lsq.thread0.rescheduledLoads        15090                       # Number of loads that were rescheduled
system.cpu1.iew.lsq.thread0.squashedLoads      4211647                       # Number of loads squashed
system.cpu1.iew.lsq.thread0.squashedStores       705723                       # Number of stores squashed
system.cpu1.iew.memOrderViolationEvents          2237                       # Number of memory order violations
system.cpu1.iew.predictedNotTakenIncorrect       549942                       # Number of branches that were predicted not taken incorrectly
system.cpu1.iew.predictedTakenIncorrect       1520220                       # Number of branches that were predicted taken incorrectly
system.cpu1.iew.wb_consumers                 78206682                       # num instructions consuming a value
system.cpu1.iew.wb_count                    131788776                       # cumulative count of insts written-back
system.cpu1.iew.wb_fanout                    0.835465                       # average fanout of values written-back
system.cpu1.iew.wb_producers                 65338963                       # num instructions producing a value
system.cpu1.iew.wb_rate                      0.268120                       # insts written-back per cycle
system.cpu1.iew.wb_sent                     131861015                       # cumulative count of insts sent to commit
system.cpu1.int_regfile_reads               169290787                       # number of integer regfile reads
system.cpu1.int_regfile_writes               88691321                       # number of integer regfile writes
system.cpu1.ipc                              0.244218                       # IPC: Instructions Per Cycle
system.cpu1.ipc_total                        0.244218                       # IPC: Total IPC of All Threads
system.cpu1.iq.FU_type_0::No_OpClass          4200213      3.10%      3.10% # Type of FU issued
system.cpu1.iq.FU_type_0::IntAlu             85284489     62.91%     66.01% # Type of FU issued
system.cpu1.iq.FU_type_0::IntMult                  46      0.00%     66.01% # Type of FU issued
system.cpu1.iq.FU_type_0::IntDiv                   88      0.00%     66.01% # Type of FU issued
system.cpu1.iq.FU_type_0::FloatAdd                  0      0.00%     66.01% # Type of FU issued
system.cpu1.iq.FU_type_0::FloatCmp                  0      0.00%     66.01% # Type of FU issued
system.cpu1.iq.FU_type_0::FloatCvt                  0      0.00%     66.01% # Type of FU issued
system.cpu1.iq.FU_type_0::FloatMult                 0      0.00%     66.01% # Type of FU issued
system.cpu1.iq.FU_type_0::FloatMultAcc              0      0.00%     66.01% # Type of FU issued
system.cpu1.iq.FU_type_0::FloatDiv                  0      0.00%     66.01% # Type of FU issued
system.cpu1.iq.FU_type_0::FloatMisc                 0      0.00%     66.01% # Type of FU issued
system.cpu1.iq.FU_type_0::FloatSqrt                 0      0.00%     66.01% # Type of FU issued
system.cpu1.iq.FU_type_0::SimdAdd                   0      0.00%     66.01% # Type of FU issued
system.cpu1.iq.FU_type_0::SimdAddAcc                0      0.00%     66.01% # Type of FU issued
system.cpu1.iq.FU_type_0::SimdAlu                   0      0.00%     66.01% # Type of FU issued
system.cpu1.iq.FU_type_0::SimdCmp                   0      0.00%     66.01% # Type of FU issued
system.cpu1.iq.FU_type_0::SimdCvt                   0      0.00%     66.01% # Type of FU issued
system.cpu1.iq.FU_type_0::SimdMisc                  0      0.00%     66.01% # Type of FU issued
system.cpu1.iq.FU_type_0::SimdMult                  0      0.00%     66.01% # Type of FU issued
system.cpu1.iq.FU_type_0::SimdMultAcc               0      0.00%     66.01% # Type of FU issued
system.cpu1.iq.FU_type_0::SimdShift                 0      0.00%     66.01% # Type of FU issued
system.cpu1.iq.FU_type_0::SimdShiftAcc              0      0.00%     66.01% # Type of FU issued
system.cpu1.iq.FU_type_0::SimdDiv                   0      0.00%     66.01% # Type of FU issued
system.cpu1.iq.FU_type_0::SimdSqrt                  0      0.00%     66.01% # Type of FU issued
system.cpu1.iq.FU_type_0::SimdFloatAdd              0      0.00%     66.01% # Type of FU issued
system.cpu1.iq.FU_type_0::SimdFloatAlu              0      0.00%     66.01% # Type of FU issued
system.cpu1.iq.FU_type_0::SimdFloatCmp              0      0.00%     66.01% # Type of FU issued
system.cpu1.iq.FU_type_0::SimdFloatCvt              0      0.00%     66.01% # Type of FU issued
system.cpu1.iq.FU_type_0::SimdFloatDiv              0      0.00%     66.01% # Type of FU issued
system.cpu1.iq.FU_type_0::SimdFloatMisc             0      0.00%     66.01% # Type of FU issued
system.cpu1.iq.FU_type_0::SimdFloatMult             0      0.00%     66.01% # Type of FU issued
system.cpu1.iq.FU_type_0::SimdFloatMultAcc            0      0.00%     66.01% # Type of FU issued
system.cpu1.iq.FU_type_0::SimdFloatSqrt             0      0.00%     66.01% # Type of FU issued
system.cpu1.iq.FU_type_0::SimdReduceAdd             0      0.00%     66.01% # Type of FU issued
system.cpu1.iq.FU_type_0::SimdReduceAlu             0      0.00%     66.01% # Type of FU issued
system.cpu1.iq.FU_type_0::SimdReduceCmp             0      0.00%     66.01% # Type of FU issued
system.cpu1.iq.FU_type_0::SimdFloatReduceAdd            0      0.00%     66.01% # Type of FU issued
system.cpu1.iq.FU_type_0::SimdFloatReduceCmp            0      0.00%     66.01% # Type of FU issued
system.cpu1.iq.FU_type_0::SimdAes                   0      0.00%     66.01% # Type of FU issued
system.cpu1.iq.FU_type_0::SimdAesMix                0      0.00%     66.01% # Type of FU issued
system.cpu1.iq.FU_type_0::SimdSha1Hash              0      0.00%     66.01% # Type of FU issued
system.cpu1.iq.FU_type_0::SimdSha1Hash2             0      0.00%     66.01% # Type of FU issued
system.cpu1.iq.FU_type_0::SimdSha256Hash            0      0.00%     66.01% # Type of FU issued
system.cpu1.iq.FU_type_0::SimdSha256Hash2            0      0.00%     66.01% # Type of FU issued
system.cpu1.iq.FU_type_0::SimdShaSigma2             0      0.00%     66.01% # Type of FU issued
system.cpu1.iq.FU_type_0::SimdShaSigma3             0      0.00%     66.01% # Type of FU issued
system.cpu1.iq.FU_type_0::SimdPredAlu               0      0.00%     66.01% # Type of FU issued
system.cpu1.iq.FU_type_0::MemRead            36624843     27.02%     93.03% # Type of FU issued
system.cpu1.iq.FU_type_0::MemWrite            9453921      6.97%    100.00% # Type of FU issued
system.cpu1.iq.FU_type_0::FloatMemRead              0      0.00%    100.00% # Type of FU issued
system.cpu1.iq.FU_type_0::FloatMemWrite            12      0.00%    100.00% # Type of FU issued
system.cpu1.iq.FU_type_0::IprAccess                 0      0.00%    100.00% # Type of FU issued
system.cpu1.iq.FU_type_0::InstPrefetch              0      0.00%    100.00% # Type of FU issued
system.cpu1.iq.FU_type_0::total             135563612                       # Type of FU issued
system.cpu1.iq.fp_alu_accesses                     14                       # Number of floating point alu accesses
system.cpu1.iq.fp_inst_queue_reads                 26                       # Number of floating instruction queue reads
system.cpu1.iq.fp_inst_queue_wakeup_accesses           12                       # Number of floating instruction queue wakeup accesses
system.cpu1.iq.fp_inst_queue_writes                12                       # Number of floating instruction queue writes
system.cpu1.iq.fu_busy_cnt                    3043527                       # FU busy when requested
system.cpu1.iq.fu_busy_rate                  0.022451                       # FU busy rate (busy events/executed inst)
system.cpu1.iq.fu_full::No_OpClass                  0      0.00%      0.00% # attempts to use FU when none available
system.cpu1.iq.fu_full::IntAlu                 703794     23.12%     23.12% # attempts to use FU when none available
system.cpu1.iq.fu_full::IntMult                     0      0.00%     23.12% # attempts to use FU when none available
system.cpu1.iq.fu_full::IntDiv                      0      0.00%     23.12% # attempts to use FU when none available
system.cpu1.iq.fu_full::FloatAdd                    0      0.00%     23.12% # attempts to use FU when none available
system.cpu1.iq.fu_full::FloatCmp                    0      0.00%     23.12% # attempts to use FU when none available
system.cpu1.iq.fu_full::FloatCvt                    0      0.00%     23.12% # attempts to use FU when none available
system.cpu1.iq.fu_full::FloatMult                   0      0.00%     23.12% # attempts to use FU when none available
system.cpu1.iq.fu_full::FloatMultAcc                0      0.00%     23.12% # attempts to use FU when none available
system.cpu1.iq.fu_full::FloatDiv                    0      0.00%     23.12% # attempts to use FU when none available
system.cpu1.iq.fu_full::FloatMisc                   0      0.00%     23.12% # attempts to use FU when none available
system.cpu1.iq.fu_full::FloatSqrt                   0      0.00%     23.12% # attempts to use FU when none available
system.cpu1.iq.fu_full::SimdAdd                     0      0.00%     23.12% # attempts to use FU when none available
system.cpu1.iq.fu_full::SimdAddAcc                  0      0.00%     23.12% # attempts to use FU when none available
system.cpu1.iq.fu_full::SimdAlu                     0      0.00%     23.12% # attempts to use FU when none available
system.cpu1.iq.fu_full::SimdCmp                     0      0.00%     23.12% # attempts to use FU when none available
system.cpu1.iq.fu_full::SimdCvt                     0      0.00%     23.12% # attempts to use FU when none available
system.cpu1.iq.fu_full::SimdMisc                    0      0.00%     23.12% # attempts to use FU when none available
system.cpu1.iq.fu_full::SimdMult                    0      0.00%     23.12% # attempts to use FU when none available
system.cpu1.iq.fu_full::SimdMultAcc                 0      0.00%     23.12% # attempts to use FU when none available
system.cpu1.iq.fu_full::SimdShift                   0      0.00%     23.12% # attempts to use FU when none available
system.cpu1.iq.fu_full::SimdShiftAcc                0      0.00%     23.12% # attempts to use FU when none available
system.cpu1.iq.fu_full::SimdDiv                     0      0.00%     23.12% # attempts to use FU when none available
system.cpu1.iq.fu_full::SimdSqrt                    0      0.00%     23.12% # attempts to use FU when none available
system.cpu1.iq.fu_full::SimdFloatAdd                0      0.00%     23.12% # attempts to use FU when none available
system.cpu1.iq.fu_full::SimdFloatAlu                0      0.00%     23.12% # attempts to use FU when none available
system.cpu1.iq.fu_full::SimdFloatCmp                0      0.00%     23.12% # attempts to use FU when none available
system.cpu1.iq.fu_full::SimdFloatCvt                0      0.00%     23.12% # attempts to use FU when none available
system.cpu1.iq.fu_full::SimdFloatDiv                0      0.00%     23.12% # attempts to use FU when none available
system.cpu1.iq.fu_full::SimdFloatMisc               0      0.00%     23.12% # attempts to use FU when none available
system.cpu1.iq.fu_full::SimdFloatMult               0      0.00%     23.12% # attempts to use FU when none available
system.cpu1.iq.fu_full::SimdFloatMultAcc            0      0.00%     23.12% # attempts to use FU when none available
system.cpu1.iq.fu_full::SimdFloatSqrt               0      0.00%     23.12% # attempts to use FU when none available
system.cpu1.iq.fu_full::SimdReduceAdd               0      0.00%     23.12% # attempts to use FU when none available
system.cpu1.iq.fu_full::SimdReduceAlu               0      0.00%     23.12% # attempts to use FU when none available
system.cpu1.iq.fu_full::SimdReduceCmp               0      0.00%     23.12% # attempts to use FU when none available
system.cpu1.iq.fu_full::SimdFloatReduceAdd            0      0.00%     23.12% # attempts to use FU when none available
system.cpu1.iq.fu_full::SimdFloatReduceCmp            0      0.00%     23.12% # attempts to use FU when none available
system.cpu1.iq.fu_full::SimdAes                     0      0.00%     23.12% # attempts to use FU when none available
system.cpu1.iq.fu_full::SimdAesMix                  0      0.00%     23.12% # attempts to use FU when none available
system.cpu1.iq.fu_full::SimdSha1Hash                0      0.00%     23.12% # attempts to use FU when none available
system.cpu1.iq.fu_full::SimdSha1Hash2               0      0.00%     23.12% # attempts to use FU when none available
system.cpu1.iq.fu_full::SimdSha256Hash              0      0.00%     23.12% # attempts to use FU when none available
system.cpu1.iq.fu_full::SimdSha256Hash2             0      0.00%     23.12% # attempts to use FU when none available
system.cpu1.iq.fu_full::SimdShaSigma2               0      0.00%     23.12% # attempts to use FU when none available
system.cpu1.iq.fu_full::SimdShaSigma3               0      0.00%     23.12% # attempts to use FU when none available
system.cpu1.iq.fu_full::SimdPredAlu                 0      0.00%     23.12% # attempts to use FU when none available
system.cpu1.iq.fu_full::MemRead               1853370     60.90%     84.02% # attempts to use FU when none available
system.cpu1.iq.fu_full::MemWrite               486361     15.98%    100.00% # attempts to use FU when none available
[...]
system.cpu1.dcache.WriteReq_misses::.cpu1.data      9142404                       # number of WriteReq misses
system.cpu1.dcache.WriteReq_misses::total      9142404                       # number of WriteReq misses
system.cpu1.dcache.WriteReq_miss_latency::.cpu1.data 714220719712                       # number of WriteReq miss cycles
system.cpu1.dcache.WriteReq_miss_latency::total 714220719712                       # number of WriteReq miss cycles
system.cpu1.dcache.WriteReq_accesses::.cpu1.data     13794370                       # number of WriteReq accesses(hits+misses)
system.cpu1.dcache.WriteReq_accesses::total     13794370                       # number of WriteReq accesses(hits+misses)
system.cpu1.dcache.WriteReq_miss_rate::.cpu1.data     0.662763                       # miss rate for WriteReq accesses
system.cpu1.dcache.WriteReq_miss_rate::total     0.662763                       # miss rate for WriteReq accesses
system.cpu1.dcache.WriteReq_avg_miss_latency::.cpu1.data 78121.763128                       # average WriteReq miss latency
system.cpu1.dcache.WriteReq_avg_miss_latency::total 78121.763128                       # average WriteReq miss latency
system.cpu1.dcache.WriteReq_mshr_hits::.cpu1.data      8248728                       # number of WriteReq MSHR hits
system.cpu1.dcache.WriteReq_mshr_hits::total      8248728                       # number of WriteReq MSHR hits
system.cpu1.dcache.WriteReq_mshr_misses::.cpu1.data       893676                       # number of WriteReq MSHR misses
system.cpu1.dcache.WriteReq_mshr_misses::total       893676                       # number of WriteReq MSHR misses
system.cpu1.dcache.WriteReq_mshr_miss_latency::.cpu1.data  84361364063                       # number of WriteReq MSHR miss cycles
system.cpu1.dcache.WriteReq_mshr_miss_latency::total  84361364063                       # number of WriteReq MSHR miss cycles
system.cpu1.dcache.WriteReq_mshr_miss_rate::.cpu1.data     0.064786                       # mshr miss rate for WriteReq accesses
system.cpu1.dcache.WriteReq_mshr_miss_rate::total     0.064786                       # mshr miss rate for WriteReq accesses
system.cpu1.dcache.WriteReq_avg_mshr_miss_latency::.cpu1.data 94398.153316                       # average WriteReq mshr miss latency
system.cpu1.dcache.WriteReq_avg_mshr_miss_latency::total 94398.153316                       # average WriteReq mshr miss latency
system.cpu1.dcache.LoadLockedReq_hits::.cpu1.data        72682                       # number of LoadLockedReq hits
system.cpu1.dcache.LoadLockedReq_hits::total        72682                       # number of LoadLockedReq hits
system.cpu1.dcache.LoadLockedReq_misses::.cpu1.data          731                       # number of LoadLockedReq misses
system.cpu1.dcache.LoadLockedReq_misses::total          731                       # number of LoadLockedReq misses
system.cpu1.dcache.LoadLockedReq_miss_latency::.cpu1.data     26266500                       # number of LoadLockedReq miss cycles
system.cpu1.dcache.LoadLockedReq_miss_latency::total     26266500                       # number of LoadLockedReq miss cycles
system.cpu1.dcache.LoadLockedReq_accesses::.cpu1.data        73413                       # number of LoadLockedReq accesses(hits+misses)
system.cpu1.dcache.LoadLockedReq_accesses::total        73413                       # number of LoadLockedReq accesses(hits+misses)
system.cpu1.dcache.LoadLockedReq_miss_rate::.cpu1.data     0.009957                       # miss rate for LoadLockedReq accesses
system.cpu1.dcache.LoadLockedReq_miss_rate::total     0.009957                       # miss rate for LoadLockedReq accesses
system.cpu1.dcache.LoadLockedReq_avg_miss_latency::.cpu1.data 35932.284542                       # average LoadLockedReq miss latency
system.cpu1.dcache.LoadLockedReq_avg_miss_latency::total 35932.284542                       # average LoadLockedReq miss latency
system.cpu1.dcache.LoadLockedReq_mshr_hits::.cpu1.data          127                       # number of LoadLockedReq MSHR hits
system.cpu1.dcache.LoadLockedReq_mshr_hits::total          127                       # number of LoadLockedReq MSHR hits
system.cpu1.dcache.LoadLockedReq_mshr_misses::.cpu1.data          604                       # number of LoadLockedReq MSHR misses
system.cpu1.dcache.LoadLockedReq_mshr_misses::total          604                       # number of LoadLockedReq MSHR misses
system.cpu1.dcache.LoadLockedReq_mshr_miss_latency::.cpu1.data     21496500                       # number of LoadLockedReq MSHR miss cycles
system.cpu1.dcache.LoadLockedReq_mshr_miss_latency::total     21496500                       # number of LoadLockedReq MSHR miss cycles
system.cpu1.dcache.LoadLockedReq_mshr_miss_rate::.cpu1.data     0.008227                       # mshr miss rate for LoadLockedReq accesses
system.cpu1.dcache.LoadLockedReq_mshr_miss_rate::total     0.008227                       # mshr miss rate for LoadLockedReq accesses
system.cpu1.dcache.LoadLockedReq_avg_mshr_miss_latency::.cpu1.data 35590.231788                       # average LoadLockedReq mshr miss latency
system.cpu1.dcache.LoadLockedReq_avg_mshr_miss_latency::total 35590.231788                       # average LoadLockedReq mshr miss latency
system.cpu1.dcache.StoreCondReq_hits::.cpu1.data        70366                       # number of StoreCondReq hits
system.cpu1.dcache.StoreCondReq_hits::total        70366                       # number of StoreCondReq hits
system.cpu1.dcache.StoreCondReq_misses::.cpu1.data         1849                       # number of StoreCondReq misses
system.cpu1.dcache.StoreCondReq_misses::total         1849                       # number of StoreCondReq misses
system.cpu1.dcache.StoreCondReq_miss_latency::.cpu1.data     13511000                       # number of StoreCondReq miss cycles
system.cpu1.dcache.StoreCondReq_miss_latency::total     13511000                       # number of StoreCondReq miss cycles
system.cpu1.dcache.StoreCondReq_accesses::.cpu1.data        72215                       # number of StoreCondReq accesses(hits+misses)
system.cpu1.dcache.StoreCondReq_accesses::total        72215                       # number of StoreCondReq accesses(hits+misses)
system.cpu1.dcache.StoreCondReq_miss_rate::.cpu1.data     0.025604                       # miss rate for StoreCondReq accesses
system.cpu1.dcache.StoreCondReq_miss_rate::total     0.025604                       # miss rate for StoreCondReq accesses
system.cpu1.dcache.StoreCondReq_avg_miss_latency::.cpu1.data  7307.193077                       # average StoreCondReq miss latency
system.cpu1.dcache.StoreCondReq_avg_miss_latency::total  7307.193077                       # average StoreCondReq miss latency
system.cpu1.dcache.StoreCondReq_mshr_misses::.cpu1.data         1844                       # number of StoreCondReq MSHR misses
system.cpu1.dcache.StoreCondReq_mshr_misses::total         1844                       # number of StoreCondReq MSHR misses
system.cpu1.dcache.StoreCondReq_mshr_miss_latency::.cpu1.data     11687000                       # number of StoreCondReq MSHR miss cycles
system.cpu1.dcache.StoreCondReq_mshr_miss_latency::total     11687000                       # number of StoreCondReq MSHR miss cycles
system.cpu1.dcache.StoreCondReq_mshr_miss_rate::.cpu1.data     0.025535                       # mshr miss rate for StoreCondReq accesses
system.cpu1.dcache.StoreCondReq_mshr_miss_rate::total     0.025535                       # mshr miss rate for StoreCondReq accesses
system.cpu1.dcache.StoreCondReq_avg_mshr_miss_latency::.cpu1.data  6337.852495                       # average StoreCondReq mshr miss latency
system.cpu1.dcache.StoreCondReq_avg_mshr_miss_latency::total  6337.852495                       # average StoreCondReq mshr miss latency
system.cpu1.dcache.StoreCondFailReq_miss_latency::.cpu1.data       534000                       # number of StoreCondFailReq miss cycles
system.cpu1.dcache.StoreCondFailReq_miss_latency::total       534000                       # number of StoreCondFailReq miss cycles
system.cpu1.dcache.StoreCondFailReq_avg_miss_latency::.cpu1.data          inf                       # average StoreCondFailReq miss latency
system.cpu1.dcache.StoreCondFailReq_avg_miss_latency::total          inf                       # average StoreCondFailReq miss latency
system.cpu1.dcache.StoreCondFailReq_mshr_miss_latency::.cpu1.data       514000                       # number of StoreCondFailReq MSHR miss cycles
system.cpu1.dcache.StoreCondFailReq_mshr_miss_latency::total       514000                       # number of StoreCondFailReq MSHR miss cycles
system.cpu1.dcache.StoreCondFailReq_avg_mshr_miss_latency::.cpu1.data          inf                       # average StoreCondFailReq mshr miss latency
system.cpu1.dcache.StoreCondFailReq_avg_mshr_miss_latency::total          inf                       # average StoreCondFailReq mshr miss latency
system.cpu1.dcache.SwapReq_hits::.cpu1.data         9616                       # number of SwapReq hits
system.cpu1.dcache.SwapReq_hits::total           9616                       # number of SwapReq hits
system.cpu1.dcache.SwapReq_misses::.cpu1.data        31780                       # number of SwapReq misses
system.cpu1.dcache.SwapReq_misses::total        31780                       # number of SwapReq misses
system.cpu1.dcache.SwapReq_miss_latency::.cpu1.data   2923308343                       # number of SwapReq miss cycles
system.cpu1.dcache.SwapReq_miss_latency::total   2923308343                       # number of SwapReq miss cycles
system.cpu1.dcache.SwapReq_accesses::.cpu1.data        41396                       # number of SwapReq accesses(hits+misses)
system.cpu1.dcache.SwapReq_accesses::total        41396                       # number of SwapReq accesses(hits+misses)
system.cpu1.dcache.SwapReq_miss_rate::.cpu1.data     0.767707                       # miss rate for SwapReq accesses
system.cpu1.dcache.SwapReq_miss_rate::total     0.767707                       # miss rate for SwapReq accesses
system.cpu1.dcache.SwapReq_avg_miss_latency::.cpu1.data 91985.788011                       # average SwapReq miss latency
system.cpu1.dcache.SwapReq_avg_miss_latency::total 91985.788011                       # average SwapReq miss latency
system.cpu1.dcache.SwapReq_mshr_hits::.cpu1.data            4                       # number of SwapReq MSHR hits
system.cpu1.dcache.SwapReq_mshr_hits::total            4                       # number of SwapReq MSHR hits
system.cpu1.dcache.SwapReq_mshr_misses::.cpu1.data        31776                       # number of SwapReq MSHR misses
system.cpu1.dcache.SwapReq_mshr_misses::total        31776                       # number of SwapReq MSHR misses
system.cpu1.dcache.SwapReq_mshr_miss_latency::.cpu1.data   2891499343                       # number of SwapReq MSHR miss cycles
system.cpu1.dcache.SwapReq_mshr_miss_latency::total   2891499343                       # number of SwapReq MSHR miss cycles
system.cpu1.dcache.SwapReq_mshr_miss_rate::.cpu1.data     0.767610                       # mshr miss rate for SwapReq accesses
system.cpu1.dcache.SwapReq_mshr_miss_rate::total     0.767610                       # mshr miss rate for SwapReq accesses
system.cpu1.dcache.SwapReq_avg_mshr_miss_latency::.cpu1.data 90996.328770                       # average SwapReq mshr miss latency
system.cpu1.dcache.SwapReq_avg_mshr_miss_latency::total 90996.328770                       # average SwapReq mshr miss latency
system.cpu1.dcache.tags.pwrStateResidencyTicks::UNDEFINED 144107059500                       # Cumulative time (in ticks) in various power states
system.cpu1.dcache.tags.tagsinuse           31.844986                       # Cycle average of tags in use
system.cpu1.dcache.tags.total_refs           17810896                       # Total number of references to valid blocks.
system.cpu1.dcache.tags.sampled_refs          1688176                       # Sample count of references to valid blocks.
system.cpu1.dcache.tags.avg_refs            10.550379                       # Average number of references to valid blocks.
system.cpu1.dcache.tags.warmup_cycle                0                       # Cycle when the warmup percentage was hit.
system.cpu1.dcache.tags.occ_blocks::.cpu1.data    31.844986                       # Average occupied blocks per requestor
system.cpu1.dcache.tags.occ_percent::.cpu1.data     0.995156                       # Average percentage of cache occupancy
system.cpu1.dcache.tags.occ_percent::total     0.995156                       # Average percentage of cache occupancy
system.cpu1.dcache.tags.occ_task_id_blocks::1024           27                       # Occupied blocks per task id
system.cpu1.dcache.tags.age_task_id_blocks_1024::1           27                       # Occupied blocks per task id
system.cpu1.dcache.tags.occ_task_id_percent::1024     0.843750                       # Percentage of cache occupancy per task id
system.cpu1.dcache.tags.tag_accesses         60662705                       # Number of tag accesses
system.cpu1.dcache.tags.data_accesses        60662705                       # Number of data accesses
system.cpu_clk_domain.clock                       500                       # Clock period in ticks
system.tol2bus.pwrStateResidencyTicks::UNDEFINED 144107059500                       # Cumulative time (in ticks) in various power states
system.tol2bus.trans_dist::ReadResp           1632203                       # Transaction distribution
system.tol2bus.trans_dist::WritebackDirty      4876384                       # Transaction distribution
system.tol2bus.trans_dist::WritebackClean      1050365                       # Transaction distribution
system.tol2bus.trans_dist::CleanEvict         4420118                       # Transaction distribution
system.tol2bus.trans_dist::HardPFReq          2224157                       # Transaction distribution
system.tol2bus.trans_dist::HardPFResp               1                       # Transaction distribution
system.tol2bus.trans_dist::UpgradeReq            6238                       # Transaction distribution
system.tol2bus.trans_dist::SCUpgradeReq          3688                       # Transaction distribution
system.tol2bus.trans_dist::UpgradeResp           9926                       # Transaction distribution
system.tol2bus.trans_dist::SCUpgradeFailReq           37                       # Transaction distribution
system.tol2bus.trans_dist::UpgradeFailResp           37                       # Transaction distribution
system.tol2bus.trans_dist::ReadExReq          1883401                       # Transaction distribution
system.tol2bus.trans_dist::ReadExResp         1883402                       # Transaction distribution
system.tol2bus.trans_dist::ReadCleanReq         98259                       # Transaction distribution
system.tol2bus.trans_dist::ReadSharedReq      1533945                       # Transaction distribution
system.tol2bus.trans_dist::InvalidateReq         1313                       # Transaction distribution
system.tol2bus.trans_dist::InvalidateResp         1313                       # Transaction distribution
system.tol2bus.pkt_count_system.cpu0.icache.mem_side::system.l2.cpu_side       201571                       # Packet count per connected master and slave (bytes)
system.tol2bus.pkt_count_system.cpu0.dcache.mem_side::system.l2.cpu_side      5184034                       # Packet count per connected master and slave (bytes)
system.tol2bus.pkt_count_system.cpu1.icache.mem_side::system.l2.cpu_side        93204                       # Packet count per connected master and slave (bytes)
system.tol2bus.pkt_count_system.cpu1.dcache.mem_side::system.l2.cpu_side      5056960                       # Packet count per connected master and slave (bytes)
system.tol2bus.pkt_count::total              10535769                       # Packet count per connected master and slave (bytes)
system.tol2bus.pkt_size_system.cpu0.icache.mem_side::system.l2.cpu_side      8600320                       # Cumulative packet size per connected master and slave (bytes)
system.tol2bus.pkt_size_system.cpu0.dcache.mem_side::system.l2.cpu_side    220572608                       # Cumulative packet size per connected master and slave (bytes)
system.tol2bus.pkt_size_system.cpu1.icache.mem_side::system.l2.cpu_side      3976704                       # Cumulative packet size per connected master and slave (bytes)
system.tol2bus.pkt_size_system.cpu1.dcache.mem_side::system.l2.cpu_side    215197824                       # Cumulative packet size per connected master and slave (bytes)
system.tol2bus.pkt_size::total              448347456                       # Cumulative packet size per connected master and slave (bytes)
system.tol2bus.snoops                         9089019                       # Total snoops (count)
system.tol2bus.snoopTraffic                 155965696                       # Total snoop traffic (bytes)
system.tol2bus.snoop_fanout::samples         12595969                       # Request fanout histogram
system.tol2bus.snoop_fanout::mean            0.246230                       # Request fanout histogram
system.tol2bus.snoop_fanout::stdev           0.435636                       # Request fanout histogram
system.tol2bus.snoop_fanout::underflows             0      0.00%      0.00% # Request fanout histogram
system.tol2bus.snoop_fanout::0                9520774     75.59%     75.59% # Request fanout histogram
system.tol2bus.snoop_fanout::1                3048881     24.21%     99.79% # Request fanout histogram
system.tol2bus.snoop_fanout::2                  26314      0.21%    100.00% # Request fanout histogram
system.tol2bus.snoop_fanout::3                      0      0.00%    100.00% # Request fanout histogram
system.tol2bus.snoop_fanout::4                      0      0.00%    100.00% # Request fanout histogram
system.tol2bus.snoop_fanout::5                      0      0.00%    100.00% # Request fanout histogram
system.tol2bus.snoop_fanout::6                      0      0.00%    100.00% # Request fanout histogram
system.tol2bus.snoop_fanout::7                      0      0.00%    100.00% # Request fanout histogram
system.tol2bus.snoop_fanout::8                      0      0.00%    100.00% # Request fanout histogram
system.tol2bus.snoop_fanout::overflows              0      0.00%    100.00% # Request fanout histogram
system.tol2bus.snoop_fanout::min_value              0                       # Request fanout histogram
system.tol2bus.snoop_fanout::max_value              2                       # Request fanout histogram
system.tol2bus.snoop_fanout::total           12595969                       # Request fanout histogram
system.tol2bus.reqLayer0.occupancy         7022672350                       # Layer occupancy (ticks)
system.tol2bus.reqLayer0.utilization              4.9                       # Layer utilization (%)
system.tol2bus.respLayer1.occupancy        2599400886                       # Layer occupancy (ticks)
system.tol2bus.respLayer1.utilization             1.8                       # Layer utilization (%)
system.tol2bus.respLayer0.occupancy         101056954                       # Layer occupancy (ticks)
system.tol2bus.respLayer0.utilization             0.1                       # Layer utilization (%)
system.tol2bus.respLayer3.occupancy        2536396963                       # Layer occupancy (ticks)
system.tol2bus.respLayer3.utilization             1.8                       # Layer utilization (%)
system.tol2bus.respLayer2.occupancy          46828045                       # Layer occupancy (ticks)
system.tol2bus.respLayer2.utilization             0.0                       # Layer utilization (%)
system.tol2bus.snoopLayer0.occupancy             1501                       # Layer occupancy (ticks)
system.tol2bus.snoopLayer0.utilization            0.0                       # Layer utilization (%)

---------- End Simulation Statistics   ----------
