
---------- Begin Simulation Statistics ----------
final_tick                               534503593000                       # Number of ticks from beginning of simulation (restored from checkpoints and never reset)
host_inst_rate                                  84714                       # Simulator instruction rate (inst/s)
host_mem_usage                                 739808                       # Number of bytes of host memory used
host_op_rate                                    84995                       # Simulator op (including micro ops) rate (op/s)
host_seconds                                  7241.15                       # Real time elapsed on the host
host_tick_rate                               73814734                       # Simulator tick rate (ticks/s)
sim_freq                                 1000000000000                       # Frequency of simulated ticks
sim_insts                                   613426257                       # Number of instructions simulated
sim_ops                                     615465038                       # Number of ops (including micro ops) simulated
sim_seconds                                  0.534504                       # Number of seconds simulated
sim_ticks                                534503593000                       # Number of ticks simulated
system.cpu0.branchPred.BTBCorrect                   0                       # Number of correct BTB predictions (this stat may not work properly.
system.cpu0.branchPred.BTBHitPct            88.173427                       # BTB Hit Percentage
system.cpu0.branchPred.BTBHits               76895129                       # Number of BTB hits
system.cpu0.branchPred.BTBLookups            87208960                       # Number of BTB lookups
system.cpu0.branchPred.RASInCorrect                 0                       # Number of incorrect RAS predictions.
system.cpu0.branchPred.condIncorrect          9239585                       # Number of conditional branches incorrect
system.cpu0.branchPred.condPredicted        119043205                       # Number of conditional branches predicted
system.cpu0.branchPred.indirectHits          10006655                       # Number of indirect target hits.
system.cpu0.branchPred.indirectLookups       10099958                       # Number of indirect predictor lookups.
system.cpu0.branchPred.indirectMisses           93303                       # Number of indirect misses.
system.cpu0.branchPred.lookups              152250483                       # Number of BP lookups
system.cpu0.branchPred.usedRAS                      0                       # Number of times the RAS was used to get a target.
system.cpu0.branchPredindirectMispredicted      1055845                       # Number of mispredicted indirect branches.
system.cpu0.commit.amos                        509403                       # Number of atomic instructions committed
system.cpu0.commit.branchMispredicts          5964996                       # The number of times a branch was mispredicted
system.cpu0.commit.branches                 138979937                       # Number of branches committed
system.cpu0.commit.bw_lim_events             14240933                       # number cycles where commit BW limit reached
system.cpu0.commit.commitNonSpecStalls        1532393                       # The number of times commit has been forced to stall to communicate backwards
system.cpu0.commit.commitSquashedInsts       40274294                       # The number of squashed insts skipped by commit
system.cpu0.commit.committedInsts           561815647                       # Number of instructions committed
system.cpu0.commit.committedOps             562326326                       # Number of ops (including micro ops) committed
system.cpu0.commit.committed_per_cycle::samples    981990038                       # Number of insts commited each cycle
system.cpu0.commit.committed_per_cycle::mean     0.572640                       # Number of insts commited each cycle
system.cpu0.commit.committed_per_cycle::stdev     1.304359                       # Number of insts commited each cycle
system.cpu0.commit.committed_per_cycle::underflows            0      0.00%      0.00% # Number of insts commited each cycle
system.cpu0.commit.committed_per_cycle::0    704343800     71.73%     71.73% # Number of insts commited each cycle
system.cpu0.commit.committed_per_cycle::1    162766536     16.58%     88.30% # Number of insts commited each cycle
system.cpu0.commit.committed_per_cycle::2     44387790      4.52%     92.82% # Number of insts commited each cycle
system.cpu0.commit.committed_per_cycle::3     39575276      4.03%     96.85% # Number of insts commited each cycle
system.cpu0.commit.committed_per_cycle::4     10603254      1.08%     97.93% # Number of insts commited each cycle
system.cpu0.commit.committed_per_cycle::5      2932582      0.30%     98.23% # Number of insts commited each cycle
system.cpu0.commit.committed_per_cycle::6       924077      0.09%     98.32% # Number of insts commited each cycle
system.cpu0.commit.committed_per_cycle::7      2215790      0.23%     98.55% # Number of insts commited each cycle
system.cpu0.commit.committed_per_cycle::8     14240933      1.45%    100.00% # Number of insts commited each cycle
system.cpu0.commit.committed_per_cycle::overflows            0      0.00%    100.00% # Number of insts commited each cycle
system.cpu0.commit.committed_per_cycle::min_value            0                       # Number of insts commited each cycle
system.cpu0.commit.committed_per_cycle::max_value            8                       # Number of insts commited each cycle
system.cpu0.commit.committed_per_cycle::total    981990038                       # Number of insts commited each cycle
system.cpu0.commit.fp_insts                        50                       # Number of committed floating point instructions.
system.cpu0.commit.function_calls            11672285                       # Number of function calls committed.
system.cpu0.commit.int_insts                543456112                       # Number of committed integer instructions.
system.cpu0.commit.loads                    174763833                       # Number of loads committed
system.cpu0.commit.membars                    1019962                       # Number of memory barriers committed
system.cpu0.commit.op_class_0::No_OpClass      1019968      0.18%      0.18% # Class of committed instruction
system.cpu0.commit.op_class_0::IntAlu       311063920     55.32%     55.50% # Class of committed instruction
system.cpu0.commit.op_class_0::IntMult        4135910      0.74%     56.23% # Class of committed instruction
system.cpu0.commit.op_class_0::IntDiv         1017773      0.18%     56.42% # Class of committed instruction
system.cpu0.commit.op_class_0::FloatAdd             0      0.00%     56.42% # Class of committed instruction
system.cpu0.commit.op_class_0::FloatCmp             4      0.00%     56.42% # Class of committed instruction
system.cpu0.commit.op_class_0::FloatCvt            12      0.00%     56.42% # Class of committed instruction
system.cpu0.commit.op_class_0::FloatMult            0      0.00%     56.42% # Class of committed instruction
system.cpu0.commit.op_class_0::FloatMultAcc            0      0.00%     56.42% # Class of committed instruction
system.cpu0.commit.op_class_0::FloatDiv             2      0.00%     56.42% # Class of committed instruction
system.cpu0.commit.op_class_0::FloatMisc            4      0.00%     56.42% # Class of committed instruction
system.cpu0.commit.op_class_0::FloatSqrt            0      0.00%     56.42% # Class of committed instruction
system.cpu0.commit.op_class_0::SimdAdd              0      0.00%     56.42% # Class of committed instruction
system.cpu0.commit.op_class_0::SimdAddAcc            0      0.00%     56.42% # Class of committed instruction
system.cpu0.commit.op_class_0::SimdAlu              0      0.00%     56.42% # Class of committed instruction
system.cpu0.commit.op_class_0::SimdCmp              0      0.00%     56.42% # Class of committed instruction
system.cpu0.commit.op_class_0::SimdCvt              0      0.00%     56.42% # Class of committed instruction
system.cpu0.commit.op_class_0::SimdMisc             0      0.00%     56.42% # Class of committed instruction
system.cpu0.commit.op_class_0::SimdMult             0      0.00%     56.42% # Class of committed instruction
system.cpu0.commit.op_class_0::SimdMultAcc            0      0.00%     56.42% # Class of committed instruction
system.cpu0.commit.op_class_0::SimdShift            0      0.00%     56.42% # Class of committed instruction
system.cpu0.commit.op_class_0::SimdShiftAcc            0      0.00%     56.42% # Class of committed instruction
system.cpu0.commit.op_class_0::SimdDiv              0      0.00%     56.42% # Class of committed instruction
system.cpu0.commit.op_class_0::SimdSqrt             0      0.00%     56.42% # Class of committed instruction
system.cpu0.commit.op_class_0::SimdFloatAdd            0      0.00%     56.42% # Class of committed instruction
system.cpu0.commit.op_class_0::SimdFloatAlu            0      0.00%     56.42% # Class of committed instruction
system.cpu0.commit.op_class_0::SimdFloatCmp            0      0.00%     56.42% # Class of committed instruction
system.cpu0.commit.op_class_0::SimdFloatCvt            0      0.00%     56.42% # Class of committed instruction
system.cpu0.commit.op_class_0::SimdFloatDiv            0      0.00%     56.42% # Class of committed instruction
system.cpu0.commit.op_class_0::SimdFloatMisc            0      0.00%     56.42% # Class of committed instruction
system.cpu0.commit.op_class_0::SimdFloatMult            0      0.00%     56.42% # Class of committed instruction
system.cpu0.commit.op_class_0::SimdFloatMultAcc            0      0.00%     56.42% # Class of committed instruction
system.cpu0.commit.op_class_0::SimdFloatSqrt            0      0.00%     56.42% # Class of committed instruction
system.cpu0.commit.op_class_0::SimdReduceAdd            0      0.00%     56.42% # Class of committed instruction
system.cpu0.commit.op_class_0::SimdReduceAlu            0      0.00%     56.42% # Class of committed instruction
system.cpu0.commit.op_class_0::SimdReduceCmp            0      0.00%     56.42% # Class of committed instruction
system.cpu0.commit.op_class_0::SimdFloatReduceAdd            0      0.00%     56.42% # Class of committed instruction
system.cpu0.commit.op_class_0::SimdFloatReduceCmp            0      0.00%     56.42% # Class of committed instruction
system.cpu0.commit.op_class_0::SimdAes              0      0.00%     56.42% # Class of committed instruction
system.cpu0.commit.op_class_0::SimdAesMix            0      0.00%     56.42% # Class of committed instruction
system.cpu0.commit.op_class_0::SimdSha1Hash            0      0.00%     56.42% # Class of committed instruction
system.cpu0.commit.op_class_0::SimdSha1Hash2            0      0.00%     56.42% # Class of committed instruction
system.cpu0.commit.op_class_0::SimdSha256Hash            0      0.00%     56.42% # Class of committed instruction
system.cpu0.commit.op_class_0::SimdSha256Hash2            0      0.00%     56.42% # Class of committed instruction
system.cpu0.commit.op_class_0::SimdShaSigma2            0      0.00%     56.42% # Class of committed instruction
system.cpu0.commit.op_class_0::SimdShaSigma3            0      0.00%     56.42% # Class of committed instruction
system.cpu0.commit.op_class_0::SimdPredAlu            0      0.00%     56.42% # Class of committed instruction
system.cpu0.commit.op_class_0::MemRead      175273228     31.17%     87.58% # Class of committed instruction
system.cpu0.commit.op_class_0::MemWrite      69815477     12.42%    100.00% # Class of committed instruction
system.cpu0.commit.op_class_0::FloatMemRead            8      0.00%    100.00% # Class of committed instruction
system.cpu0.commit.op_class_0::FloatMemWrite           20      0.00%    100.00% # Class of committed instruction
system.cpu0.commit.op_class_0::IprAccess            0      0.00%    100.00% # Class of committed instruction
system.cpu0.commit.op_class_0::InstPrefetch            0      0.00%    100.00% # Class of committed instruction
system.cpu0.commit.op_class_0::total        562326326                       # Class of committed instruction
system.cpu0.commit.refs                     245088733                       # Number of memory references committed
system.cpu0.commit.swp_count                        0                       # Number of s/w prefetches committed
system.cpu0.commit.vec_insts                        0                       # Number of committed Vector instructions.
system.cpu0.committedInsts                  561815647                       # Number of Instructions Simulated
system.cpu0.committedOps                    562326326                       # Number of Ops (including micro ops) Simulated
system.cpu0.cpi                              1.883022                       # CPI: Cycles Per Instruction
system.cpu0.cpi_total                        1.883022                       # CPI: Total CPI of All Threads
system.cpu0.decode.BlockedCycles            103483063                       # Number of cycles decode is blocked
system.cpu0.decode.BranchMispred              3281410                       # Number of times decode detected a branch misprediction
system.cpu0.decode.BranchResolved            76209488                       # Number of times decode resolved a branch
system.cpu0.decode.DecodedInsts             615376097                       # Number of instructions handled by decode
system.cpu0.decode.IdleCycles               452712769                       # Number of cycles decode is idle
system.cpu0.decode.RunCycles                427034954                       # Number of cycles decode is running
system.cpu0.decode.SquashCycles               5972432                       # Number of cycles decode is squashing
system.cpu0.decode.SquashedInsts              8389860                       # Number of squashed instructions handled by decode
system.cpu0.decode.UnblockCycles              2029865                       # Number of cycles decode is unblocking
system.cpu0.dtb.accesses                            0                       # DTB accesses
system.cpu0.dtb.hits                                0                       # DTB hits
system.cpu0.dtb.misses                              0                       # DTB misses
system.cpu0.dtb.read_accesses                       0                       # DTB read accesses
system.cpu0.dtb.read_hits                           0                       # DTB read hits
system.cpu0.dtb.read_misses                         0                       # DTB read misses
system.cpu0.dtb.write_accesses                      0                       # DTB write accesses
system.cpu0.dtb.write_hits                          0                       # DTB write hits
system.cpu0.dtb.write_misses                        0                       # DTB write misses
system.cpu0.fetch.Branches                  152250483                       # Number of branches that fetch encountered
system.cpu0.fetch.CacheLines                111887575                       # Number of cache lines fetched
system.cpu0.fetch.Cycles                    541580857                       # Number of cycles fetch has run and was not squashing or blocked
system.cpu0.fetch.IcacheSquashes              2988046                       # Number of outstanding Icache misses that were squashed
system.cpu0.fetch.IcacheWaitRetryStallCycles           46                       # Number of stall cycles due to full MSHR
system.cpu0.fetch.Insts                     632119422                       # Number of instructions fetch has processed
system.cpu0.fetch.MiscStallCycles                  16                       # Number of cycles fetch has spent waiting on interrupts, or bad addresses, or out of MSHRs
system.cpu0.fetch.PendingTrapStallCycles           30                       # Number of stall cycles due to pending traps
system.cpu0.fetch.SquashCycles               18494052                       # Number of cycles fetch has spent squashing
system.cpu0.fetch.branchRate                 0.143916                       # Number of branch fetches per cycle
system.cpu0.fetch.icacheStallCycles         440405108                       # Number of cycles fetch is stalled on an Icache miss
system.cpu0.fetch.predictedBranches          86901784                       # Number of branches that fetch has predicted taken
system.cpu0.fetch.rate                       0.597517                       # Number of inst fetches per cycle
system.cpu0.fetch.rateDist::samples         991233083                       # Number of instructions fetched each cycle (Total)
system.cpu0.fetch.rateDist::mean             0.639111                       # Number of instructions fetched each cycle (Total)
system.cpu0.fetch.rateDist::stdev            0.917587                       # Number of instructions fetched each cycle (Total)
system.cpu0.fetch.rateDist::underflows              0      0.00%      0.00% # Number of instructions fetched each cycle (Total)
system.cpu0.fetch.rateDist::0               547733753     55.26%     55.26% # Number of instructions fetched each cycle (Total)
system.cpu0.fetch.rateDist::1               329502034     33.24%     88.50% # Number of instructions fetched each cycle (Total)
system.cpu0.fetch.rateDist::2                59526638      6.01%     94.50% # Number of instructions fetched each cycle (Total)
system.cpu0.fetch.rateDist::3                42031582      4.24%     98.75% # Number of instructions fetched each cycle (Total)
system.cpu0.fetch.rateDist::4                 7605132      0.77%     99.51% # Number of instructions fetched each cycle (Total)
system.cpu0.fetch.rateDist::5                 2614037      0.26%     99.78% # Number of instructions fetched each cycle (Total)
system.cpu0.fetch.rateDist::6                  175636      0.02%     99.79% # Number of instructions fetched each cycle (Total)
system.cpu0.fetch.rateDist::7                 2041050      0.21%    100.00% # Number of instructions fetched each cycle (Total)
system.cpu0.fetch.rateDist::8                    3221      0.00%    100.00% # Number of instructions fetched each cycle (Total)
system.cpu0.fetch.rateDist::overflows               0      0.00%    100.00% # Number of instructions fetched each cycle (Total)
system.cpu0.fetch.rateDist::min_value               0                       # Number of instructions fetched each cycle (Total)
system.cpu0.fetch.rateDist::max_value               8                       # Number of instructions fetched each cycle (Total)
system.cpu0.fetch.rateDist::total           991233083                       # Number of instructions fetched each cycle (Total)
system.cpu0.fp_regfile_reads                       44                       # number of floating regfile reads
system.cpu0.fp_regfile_writes                      22                       # number of floating regfile writes
system.cpu0.idleCycles                       66677939                       # Total number of cycles that the CPU has spent unscheduled due to idling
system.cpu0.iew.branchMispredicts             6017515                       # Number of branch mispredicts detected at execute
system.cpu0.iew.exec_branches               143353683                       # Number of branches executed
system.cpu0.iew.exec_nop                            0                       # number of nop insts executed
system.cpu0.iew.exec_rate                    0.555815                       # Inst execution rate
system.cpu0.iew.exec_refs                   259121597                       # number of memory reference insts executed
system.cpu0.iew.exec_stores                  72357582                       # Number of stores executed
system.cpu0.iew.exec_swp                            0                       # number of swp insts executed
system.cpu0.iew.iewBlockCycles               78478126                       # Number of cycles IEW is blocking
system.cpu0.iew.iewDispLoadInsts            190238612                       # Number of dispatched load instructions
system.cpu0.iew.iewDispNonSpecInsts           1017052                       # Number of dispatched non-speculative instructions
system.cpu0.iew.iewDispSquashedInsts          1892212                       # Number of squashed instructions skipped by dispatch
system.cpu0.iew.iewDispStoreInsts            74910699                       # Number of dispatched store instructions
system.cpu0.iew.iewDispatchedInsts          602585265                       # Number of instructions dispatched to IQ
system.cpu0.iew.iewExecLoadInsts            186764015                       # Number of load instructions executed
system.cpu0.iew.iewExecSquashedInsts          4447330                       # Number of squashed instructions skipped in execute
system.cpu0.iew.iewExecutedInsts            588003108                       # Number of executed instructions
system.cpu0.iew.iewIQFullEvents                527420                       # Number of times the IQ has become full, causing a stall
system.cpu0.iew.iewIdleCycles                       0                       # Number of cycles IEW is idle
system.cpu0.iew.iewLSQFullEvents              3365094                       # Number of times the LSQ has become full, causing a stall
system.cpu0.iew.iewSquashCycles               5972432                       # Number of cycles IEW is squashing
system.cpu0.iew.iewUnblockCycles              4415428                       # Number of cycles IEW is unblocking
system.cpu0.iew.lsq.thread0.blockedLoads            0                       # Number of blocked loads due to partial load-store forwarding
system.cpu0.iew.lsq.thread0.cacheBlocked        78516                       # Number of times an access to memory failed due to the cache being blocked
system.cpu0.iew.lsq.thread0.forwLoads         7968725                       # Number of loads that had data forwarded from stores
system.cpu0.iew.lsq.thread0.ignoredResponses        25341                       # Number of memory responses ignored because the instruction is squashed
system.cpu0.iew.lsq.thread0.invAddrLoads            0                       # Number of loads ignored due to an invalid address
system.cpu0.iew.lsq.thread0.invAddrSwpfs            0                       # Number of software prefetches ignored due to an invalid address
system.cpu0.iew.lsq.thread0.memOrderViolation         7835                       # Number of memory ordering violations
system.cpu0.iew.lsq.thread0.rescheduledLoads      2280571                       # Number of loads that were rescheduled
system.cpu0.iew.lsq.thread0.squashedLoads     15474779                       # Number of loads squashed
system.cpu0.iew.lsq.thread0.squashedStores      4585799                       # Number of stores squashed
system.cpu0.iew.memOrderViolationEvents          7835                       # Number of memory order violations
system.cpu0.iew.predictedNotTakenIncorrect       804949                       # Number of branches that were predicted not taken incorrectly
system.cpu0.iew.predictedTakenIncorrect       5212566                       # Number of branches that were predicted taken incorrectly
system.cpu0.iew.wb_consumers                244430718                       # num instructions consuming a value
system.cpu0.iew.wb_count                    581800230                       # cumulative count of insts written-back
system.cpu0.iew.wb_fanout                    0.878064                       # average fanout of values written-back
system.cpu0.iew.wb_producers                214625713                       # num instructions producing a value
system.cpu0.iew.wb_rate                      0.549952                       # insts written-back per cycle
system.cpu0.iew.wb_sent                     581848040                       # cumulative count of insts sent to commit
system.cpu0.int_regfile_reads               716725850                       # number of integer regfile reads
system.cpu0.int_regfile_writes              371014459                       # number of integer regfile writes
system.cpu0.ipc                              0.531061                       # IPC: Instructions Per Cycle
system.cpu0.ipc_total                        0.531061                       # IPC: Total IPC of All Threads
system.cpu0.iq.FU_type_0::No_OpClass          1020981      0.17%      0.17% # Type of FU issued
system.cpu0.iq.FU_type_0::IntAlu            324552706     54.78%     54.95% # Type of FU issued
system.cpu0.iq.FU_type_0::IntMult             4139990      0.70%     55.65% # Type of FU issued
system.cpu0.iq.FU_type_0::IntDiv              1018047      0.17%     55.82% # Type of FU issued
system.cpu0.iq.FU_type_0::FloatAdd                  0      0.00%     55.82% # Type of FU issued
system.cpu0.iq.FU_type_0::FloatCmp                  4      0.00%     55.82% # Type of FU issued
system.cpu0.iq.FU_type_0::FloatCvt                 12      0.00%     55.82% # Type of FU issued
system.cpu0.iq.FU_type_0::FloatMult                 0      0.00%     55.82% # Type of FU issued
system.cpu0.iq.FU_type_0::FloatMultAcc              0      0.00%     55.82% # Type of FU issued
system.cpu0.iq.FU_type_0::FloatDiv                  2      0.00%     55.82% # Type of FU issued
system.cpu0.iq.FU_type_0::FloatMisc                 4      0.00%     55.82% # Type of FU issued
system.cpu0.iq.FU_type_0::FloatSqrt                 0      0.00%     55.82% # Type of FU issued
system.cpu0.iq.FU_type_0::SimdAdd                   0      0.00%     55.82% # Type of FU issued
system.cpu0.iq.FU_type_0::SimdAddAcc                0      0.00%     55.82% # Type of FU issued
system.cpu0.iq.FU_type_0::SimdAlu                   0      0.00%     55.82% # Type of FU issued
system.cpu0.iq.FU_type_0::SimdCmp                   0      0.00%     55.82% # Type of FU issued
system.cpu0.iq.FU_type_0::SimdCvt                   0      0.00%     55.82% # Type of FU issued
system.cpu0.iq.FU_type_0::SimdMisc                  0      0.00%     55.82% # Type of FU issued
system.cpu0.iq.FU_type_0::SimdMult                  0      0.00%     55.82% # Type of FU issued
system.cpu0.iq.FU_type_0::SimdMultAcc               0      0.00%     55.82% # Type of FU issued
system.cpu0.iq.FU_type_0::SimdShift                 0      0.00%     55.82% # Type of FU issued
system.cpu0.iq.FU_type_0::SimdShiftAcc              0      0.00%     55.82% # Type of FU issued
system.cpu0.iq.FU_type_0::SimdDiv                   0      0.00%     55.82% # Type of FU issued
system.cpu0.iq.FU_type_0::SimdSqrt                  0      0.00%     55.82% # Type of FU issued
system.cpu0.iq.FU_type_0::SimdFloatAdd              0      0.00%     55.82% # Type of FU issued
system.cpu0.iq.FU_type_0::SimdFloatAlu              0      0.00%     55.82% # Type of FU issued
system.cpu0.iq.FU_type_0::SimdFloatCmp              0      0.00%     55.82% # Type of FU issued
system.cpu0.iq.FU_type_0::SimdFloatCvt              0      0.00%     55.82% # Type of FU issued
system.cpu0.iq.FU_type_0::SimdFloatDiv              0      0.00%     55.82% # Type of FU issued
system.cpu0.iq.FU_type_0::SimdFloatMisc             0      0.00%     55.82% # Type of FU issued
system.cpu0.iq.FU_type_0::SimdFloatMult             0      0.00%     55.82% # Type of FU issued
system.cpu0.iq.FU_type_0::SimdFloatMultAcc            0      0.00%     55.82% # Type of FU issued
system.cpu0.iq.FU_type_0::SimdFloatSqrt             0      0.00%     55.82% # Type of FU issued
system.cpu0.iq.FU_type_0::SimdReduceAdd             0      0.00%     55.82% # Type of FU issued
system.cpu0.iq.FU_type_0::SimdReduceAlu             0      0.00%     55.82% # Type of FU issued
system.cpu0.iq.FU_type_0::SimdReduceCmp             0      0.00%     55.82% # Type of FU issued
system.cpu0.iq.FU_type_0::SimdFloatReduceAdd            0      0.00%     55.82% # Type of FU issued
system.cpu0.iq.FU_type_0::SimdFloatReduceCmp            0      0.00%     55.82% # Type of FU issued
system.cpu0.iq.FU_type_0::SimdAes                   0      0.00%     55.82% # Type of FU issued
system.cpu0.iq.FU_type_0::SimdAesMix                0      0.00%     55.82% # Type of FU issued
system.cpu0.iq.FU_type_0::SimdSha1Hash              0      0.00%     55.82% # Type of FU issued
system.cpu0.iq.FU_type_0::SimdSha1Hash2             0      0.00%     55.82% # Type of FU issued
system.cpu0.iq.FU_type_0::SimdSha256Hash            0      0.00%     55.82% # Type of FU issued
system.cpu0.iq.FU_type_0::SimdSha256Hash2            0      0.00%     55.82% # Type of FU issued
system.cpu0.iq.FU_type_0::SimdShaSigma2             0      0.00%     55.82% # Type of FU issued
system.cpu0.iq.FU_type_0::SimdShaSigma3             0      0.00%     55.82% # Type of FU issued
system.cpu0.iq.FU_type_0::SimdPredAlu               0      0.00%     55.82% # Type of FU issued
system.cpu0.iq.FU_type_0::MemRead           188871927     31.88%     87.70% # Type of FU issued
system.cpu0.iq.FU_type_0::MemWrite           72846735     12.30%    100.00% # Type of FU issued
system.cpu0.iq.FU_type_0::FloatMemRead             11      0.00%    100.00% # Type of FU issued
system.cpu0.iq.FU_type_0::FloatMemWrite            20      0.00%    100.00% # Type of FU issued
system.cpu0.iq.FU_type_0::IprAccess                 0      0.00%    100.00% # Type of FU issued
system.cpu0.iq.FU_type_0::InstPrefetch              0      0.00%    100.00% # Type of FU issued
system.cpu0.iq.FU_type_0::total             592450439                       # Type of FU issued
system.cpu0.iq.fp_alu_accesses                     55                       # Number of floating point alu accesses
system.cpu0.iq.fp_inst_queue_reads                108                       # Number of floating instruction queue reads
system.cpu0.iq.fp_inst_queue_wakeup_accesses           50                       # Number of floating instruction queue wakeup accesses
system.cpu0.iq.fp_inst_queue_writes                56                       # Number of floating instruction queue writes
system.cpu0.iq.fu_busy_cnt                     801620                       # FU busy when requested
system.cpu0.iq.fu_busy_rate                  0.001353                       # FU busy rate (busy events/executed inst)
system.cpu0.iq.fu_full::No_OpClass                  0      0.00%      0.00% # attempts to use FU when none available
system.cpu0.iq.fu_full::IntAlu                 152630     19.04%     19.04% # attempts to use FU when none available
system.cpu0.iq.fu_full::IntMult                     0      0.00%     19.04% # attempts to use FU when none available
system.cpu0.iq.fu_full::IntDiv                      0      0.00%     19.04% # attempts to use FU when none available
system.cpu0.iq.fu_full::FloatAdd                    0      0.00%     19.04% # attempts to use FU when none available
system.cpu0.iq.fu_full::FloatCmp                    0      0.00%     19.04% # attempts to use FU when none available
system.cpu0.iq.fu_full::FloatCvt                    0      0.00%     19.04% # attempts to use FU when none available
system.cpu0.iq.fu_full::FloatMult                   0      0.00%     19.04% # attempts to use FU when none available
system.cpu0.iq.fu_full::FloatMultAcc                0      0.00%     19.04% # attempts to use FU when none available
system.cpu0.iq.fu_full::FloatDiv                    0      0.00%     19.04% # attempts to use FU when none available
system.cpu0.iq.fu_full::FloatMisc                   0      0.00%     19.04% # attempts to use FU when none available
system.cpu0.iq.fu_full::FloatSqrt                   0      0.00%     19.04% # attempts to use FU when none available
system.cpu0.iq.fu_full::SimdAdd                     0      0.00%     19.04% # attempts to use FU when none available
system.cpu0.iq.fu_full::SimdAddAcc                  0      0.00%     19.04% # attempts to use FU when none available
system.cpu0.iq.fu_full::SimdAlu                     0      0.00%     19.04% # attempts to use FU when none available
system.cpu0.iq.fu_full::SimdCmp                     0      0.00%     19.04% # attempts to use FU when none available
system.cpu0.iq.fu_full::SimdCvt                     0      0.00%     19.04% # attempts to use FU when none available
system.cpu0.iq.fu_full::SimdMisc                    0      0.00%     19.04% # attempts to use FU when none available
system.cpu0.iq.fu_full::SimdMult                    0      0.00%     19.04% # attempts to use FU when none available
system.cpu0.iq.fu_full::SimdMultAcc                 0      0.00%     19.04% # attempts to use FU when none available
system.cpu0.iq.fu_full::SimdShift                   0      0.00%     19.04% # attempts to use FU when none available
system.cpu0.iq.fu_full::SimdShiftAcc                0      0.00%     19.04% # attempts to use FU when none available
system.cpu0.iq.fu_full::SimdDiv                     0      0.00%     19.04% # attempts to use FU when none available
system.cpu0.iq.fu_full::SimdSqrt                    0      0.00%     19.04% # attempts to use FU when none available
system.cpu0.iq.fu_full::SimdFloatAdd                0      0.00%     19.04% # attempts to use FU when none available
system.cpu0.iq.fu_full::SimdFloatAlu                0      0.00%     19.04% # attempts to use FU when none available
system.cpu0.iq.fu_full::SimdFloatCmp                0      0.00%     19.04% # attempts to use FU when none available
system.cpu0.iq.fu_full::SimdFloatCvt                0      0.00%     19.04% # attempts to use FU when none available
system.cpu0.iq.fu_full::SimdFloatDiv                0      0.00%     19.04% # attempts to use FU when none available
system.cpu0.iq.fu_full::SimdFloatMisc               0      0.00%     19.04% # attempts to use FU when none available
system.cpu0.iq.fu_full::SimdFloatMult               0      0.00%     19.04% # attempts to use FU when none available
system.cpu0.iq.fu_full::SimdFloatMultAcc            0      0.00%     19.04% # attempts to use FU when none available
system.cpu0.iq.fu_full::SimdFloatSqrt               0      0.00%     19.04% # attempts to use FU when none available
system.cpu0.iq.fu_full::SimdReduceAdd               0      0.00%     19.04% # attempts to use FU when none available
system.cpu0.iq.fu_full::SimdReduceAlu               0      0.00%     19.04% # attempts to use FU when none available
system.cpu0.iq.fu_full::SimdReduceCmp               0      0.00%     19.04% # attempts to use FU when none available
system.cpu0.iq.fu_full::SimdFloatReduceAdd            0      0.00%     19.04% # attempts to use FU when none available
system.cpu0.iq.fu_full::SimdFloatReduceCmp            0      0.00%     19.04% # attempts to use FU when none available
system.cpu0.iq.fu_full::SimdAes                     0      0.00%     19.04% # attempts to use FU when none available
system.cpu0.iq.fu_full::SimdAesMix                  0      0.00%     19.04% # attempts to use FU when none available
system.cpu0.iq.fu_full::SimdSha1Hash                0      0.00%     19.04% # attempts to use FU when none available
system.cpu0.iq.fu_full::SimdSha1Hash2               0      0.00%     19.04% # attempts to use FU when none available
system.cpu0.iq.fu_full::SimdSha256Hash              0      0.00%     19.04% # attempts to use FU when none available
system.cpu0.iq.fu_full::SimdSha256Hash2             0      0.00%     19.04% # attempts to use FU when none available
system.cpu0.iq.fu_full::SimdShaSigma2               0      0.00%     19.04% # attempts to use FU when none available
system.cpu0.iq.fu_full::SimdShaSigma3               0      0.00%     19.04% # attempts to use FU when none available
system.cpu0.iq.fu_full::SimdPredAlu                 0      0.00%     19.04% # attempts to use FU when none available
system.cpu0.iq.fu_full::MemRead                552247     68.89%     87.93% # attempts to use FU when none available
system.cpu0.iq.fu_full::MemWrite                96741     12.07%    100.00% # attempts to use FU when none available
system.cpu0.iq.fu_full::FloatMemRead                0      0.00%    100.00% # attempts to use FU when none available
system.cpu0.iq.fu_full::FloatMemWrite               2      0.00%    100.00% # attempts to use FU when none available
system.cpu0.iq.fu_full::IprAccess                   0      0.00%    100.00% # attempts to use FU when none available
system.cpu0.iq.fu_full::InstPrefetch                0      0.00%    100.00% # attempts to use FU when none available
system.cpu0.iq.int_alu_accesses             592231023                       # Number of integer alu accesses
system.cpu0.iq.int_inst_queue_reads        2176994401                       # Number of integer instruction queue reads
system.cpu0.iq.int_inst_queue_wakeup_accesses    581800180                       # Number of integer instruction queue wakeup accesses
system.cpu0.iq.int_inst_queue_writes        642851201                       # Number of integer instruction queue writes
system.cpu0.iq.iqInstsAdded                 599539179                       # Number of instructions added to the IQ (excludes non-spec)
system.cpu0.iq.iqInstsIssued                592450439                       # Number of instructions issued
system.cpu0.iq.iqNonSpecInstsAdded            3046086                       # Number of non-speculative instructions added to the IQ
system.cpu0.iq.iqSquashedInstsExamined       40258935                       # Number of squashed instructions iterated over during squash; mainly for profiling
system.cpu0.iq.iqSquashedInstsIssued            58929                       # Number of squashed instructions issued
system.cpu0.iq.iqSquashedNonSpecRemoved       1513693                       # Number of squashed non-spec instructions that were removed
system.cpu0.iq.iqSquashedOperandsExamined     22009546                       # Number of squashed operands that are examined and possibly removed from graph
system.cpu0.iq.issued_per_cycle::samples    991233083                       # Number of insts issued each cycle
system.cpu0.iq.issued_per_cycle::mean        0.597690                       # Number of insts issued each cycle
system.cpu0.iq.issued_per_cycle::stdev       0.810343                       # Number of insts issued each cycle
system.cpu0.iq.issued_per_cycle::underflows            0      0.00%      0.00% # Number of insts issued each cycle
system.cpu0.iq.issued_per_cycle::0          558575753     56.35%     56.35% # Number of insts issued each cycle
system.cpu0.iq.issued_per_cycle::1          308628664     31.14%     87.49% # Number of insts issued each cycle
system.cpu0.iq.issued_per_cycle::2           96155632      9.70%     97.19% # Number of insts issued each cycle
system.cpu0.iq.issued_per_cycle::3           21691838      2.19%     99.38% # Number of insts issued each cycle
system.cpu0.iq.issued_per_cycle::4            5249435      0.53%     99.91% # Number of insts issued each cycle
system.cpu0.iq.issued_per_cycle::5             425571      0.04%     99.95% # Number of insts issued each cycle
system.cpu0.iq.issued_per_cycle::6             299460      0.03%     99.98% # Number of insts issued each cycle
system.cpu0.iq.issued_per_cycle::7             141198      0.01%     99.99% # Number of insts issued each cycle
system.cpu0.iq.issued_per_cycle::8              65532      0.01%    100.00% # Number of insts issued each cycle
system.cpu0.iq.issued_per_cycle::overflows            0      0.00%    100.00% # Number of insts issued each cycle
system.cpu0.iq.issued_per_cycle::min_value            0                       # Number of insts issued each cycle
system.cpu0.iq.issued_per_cycle::max_value            8                       # Number of insts issued each cycle
system.cpu0.iq.issued_per_cycle::total      991233083                       # Number of insts issued each cycle
system.cpu0.iq.rate                          0.560019                       # Inst issue rate
system.cpu0.iq.vec_alu_accesses                     0                       # Number of vector alu accesses
system.cpu0.iq.vec_inst_queue_reads                 0                       # Number of vector instruction queue reads
system.cpu0.iq.vec_inst_queue_wakeup_accesses            0                       # Number of vector instruction queue wakeup accesses
system.cpu0.iq.vec_inst_queue_writes                0                       # Number of vector instruction queue writes
system.cpu0.itb.accesses                            0                       # DTB accesses
system.cpu0.itb.hits                                0                       # DTB hits
system.cpu0.itb.misses                              0                       # DTB misses
system.cpu0.itb.read_accesses                       0                       # DTB read accesses
system.cpu0.itb.read_hits                           0                       # DTB read hits
system.cpu0.itb.read_misses                         0                       # DTB read misses
system.cpu0.itb.write_accesses                      0                       # DTB write accesses
system.cpu0.itb.write_hits                          0                       # DTB write hits
system.cpu0.itb.write_misses                        0                       # DTB write misses
system.cpu0.memDep0.conflictingLoads         10691669                       # Number of conflicting loads.
system.cpu0.memDep0.conflictingStores         2126646                       # Number of conflicting stores.
system.cpu0.memDep0.insertedLoads           190238612                       # Number of loads inserted to the mem dependence unit.
system.cpu0.memDep0.insertedStores           74910699                       # Number of stores inserted to the mem dependence unit.
system.cpu0.misc_regfile_reads                   1041                       # number of misc regfile reads
system.cpu0.misc_regfile_writes                    22                       # number of misc regfile writes
system.cpu0.numCycles                      1057911022                       # number of cpu cycles simulated
system.cpu0.numWorkItemsCompleted                   0                       # number of work items this cpu completed
system.cpu0.numWorkItemsStarted                     0                       # number of work items this cpu started
system.cpu0.quiesceCycles                    11096967                       # Total number of cycles that CPU has spent quiesced or waiting for an interrupt
system.cpu0.rename.BlockCycles               86705868                       # Number of cycles rename is blocking
system.cpu0.rename.CommittedMaps            357830192                       # Number of HB maps that are committed
system.cpu0.rename.IQFullEvents               3474375                       # Number of times rename has blocked due to IQ full
system.cpu0.rename.IdleCycles               459441148                       # Number of cycles rename is idle
system.cpu0.rename.LQFullEvents               6119944                       # Number of times rename has blocked due to LQ full
system.cpu0.rename.ROBFullEvents                 7944                       # Number of times rename has blocked due to ROB full
system.cpu0.rename.RenameLookups            744521926                       # Number of register rename lookups that rename has made
system.cpu0.rename.RenamedInsts             610281069                       # Number of instructions processed by rename
system.cpu0.rename.RenamedOperands          390882278                       # Number of destination operands rename has renamed
system.cpu0.rename.RunCycles                421717496                       # Number of cycles rename is running
system.cpu0.rename.SQFullEvents               7450044                       # Number of times rename has blocked due to SQ full
system.cpu0.rename.SquashCycles               5972432                       # Number of cycles rename is squashing
system.cpu0.rename.UnblockCycles             17303575                       # Number of cycles rename is unblocking
system.cpu0.rename.UndoneMaps                33052081                       # Number of HB maps that are undone due to squashing
system.cpu0.rename.fp_rename_lookups               44                       # Number of floating rename lookups
system.cpu0.rename.int_rename_lookups       744521882                       # Number of integer rename lookups
system.cpu0.rename.serializeStallCycles         92564                       # count of cycles rename stalled for serializing inst
system.cpu0.rename.serializingInsts              3189                       # count of serializing insts renamed
system.cpu0.rename.skidInsts                  7540468                       # count of insts added to the skid buffer
system.cpu0.rename.tempSerializingInsts          3140                       # count of temporary serializing insts renamed
system.cpu0.rob.rob_reads                  1570336751                       # The number of ROB reads
system.cpu0.rob.rob_writes                 1214453234                       # The number of ROB writes
system.cpu0.timesIdled                       14508402                       # Number of times that the entire CPU went into an idle state and unscheduled itself
system.cpu0.workload.numSyscalls                 1008                       # Number of system calls
system.cpu1.branchPred.BTBCorrect                   0                       # Number of correct BTB predictions (this stat may not work properly.
system.cpu1.branchPred.BTBHitPct            79.926483                       # BTB Hit Percentage
system.cpu1.branchPred.BTBHits                2957371                       # Number of BTB hits
system.cpu1.branchPred.BTBLookups             3700114                       # Number of BTB lookups
system.cpu1.branchPred.RASInCorrect                 0                       # Number of incorrect RAS predictions.
system.cpu1.branchPred.condIncorrect           391786                       # Number of conditional branches incorrect
system.cpu1.branchPred.condPredicted          4915377                       # Number of conditional branches predicted
system.cpu1.branchPred.indirectHits            136556                       # Number of indirect target hits.
system.cpu1.branchPred.indirectLookups         140260                       # Number of indirect predictor lookups.
system.cpu1.branchPred.indirectMisses            3704                       # Number of indirect misses.
system.cpu1.branchPred.lookups                5546694                       # Number of BP lookups
system.cpu1.branchPred.usedRAS                      0                       # Number of times the RAS was used to get a target.
system.cpu1.branchPredindirectMispredicted         8986                       # Number of mispredicted indirect branches.
system.cpu1.commit.amos                        509188                       # Number of atomic instructions committed
system.cpu1.commit.branchMispredicts           290451                       # The number of times a branch was mispredicted
system.cpu1.commit.branches                   4419881                       # Number of branches committed
system.cpu1.commit.bw_lim_events               526487                       # number cycles where commit BW limit reached
system.cpu1.commit.commitNonSpecStalls        1528267                       # The number of times commit has been forced to stall to communicate backwards
system.cpu1.commit.commitSquashedInsts        2597517                       # The number of squashed insts skipped by commit
system.cpu1.commit.committedInsts            19245330                       # Number of instructions committed
system.cpu1.commit.committedOps              19754729                       # Number of ops (including micro ops) committed
system.cpu1.commit.committed_per_cycle::samples    115322375                       # Number of insts commited each cycle
system.cpu1.commit.committed_per_cycle::mean     0.171300                       # Number of insts commited each cycle
system.cpu1.commit.committed_per_cycle::stdev     0.823811                       # Number of insts commited each cycle
system.cpu1.commit.committed_per_cycle::underflows            0      0.00%      0.00% # Number of insts commited each cycle
system.cpu1.commit.committed_per_cycle::0    107163362     92.93%     92.93% # Number of insts commited each cycle
system.cpu1.commit.committed_per_cycle::1      4047893      3.51%     96.44% # Number of insts commited each cycle
system.cpu1.commit.committed_per_cycle::2      1390744      1.21%     97.64% # Number of insts commited each cycle
system.cpu1.commit.committed_per_cycle::3      1271246      1.10%     98.74% # Number of insts commited each cycle
system.cpu1.commit.committed_per_cycle::4       292098      0.25%     99.00% # Number of insts commited each cycle
system.cpu1.commit.committed_per_cycle::5       102016      0.09%     99.09% # Number of insts commited each cycle
system.cpu1.commit.committed_per_cycle::6       478461      0.41%     99.50% # Number of insts commited each cycle
system.cpu1.commit.committed_per_cycle::7        50068      0.04%     99.54% # Number of insts commited each cycle
system.cpu1.commit.committed_per_cycle::8       526487      0.46%    100.00% # Number of insts commited each cycle
system.cpu1.commit.committed_per_cycle::overflows            0      0.00%    100.00% # Number of insts commited each cycle
system.cpu1.commit.committed_per_cycle::min_value            0                       # Number of insts commited each cycle
system.cpu1.commit.committed_per_cycle::max_value            8                       # Number of insts commited each cycle
system.cpu1.commit.committed_per_cycle::total    115322375                       # Number of insts commited each cycle
system.cpu1.commit.fp_insts                        12                       # Number of committed floating point instructions.
system.cpu1.commit.function_calls              227503                       # Number of function calls committed.
system.cpu1.commit.int_insts                 18554059                       # Number of committed integer instructions.
system.cpu1.commit.loads                      5320431                       # Number of loads committed
system.cpu1.commit.membars                    1018448                       # Number of memory barriers committed
system.cpu1.commit.op_class_0::No_OpClass      1018448      5.16%      5.16% # Class of committed instruction
system.cpu1.commit.op_class_0::IntAlu        11646857     58.96%     64.11% # Class of committed instruction
system.cpu1.commit.op_class_0::IntMult             42      0.00%     64.11% # Class of committed instruction
system.cpu1.commit.op_class_0::IntDiv              84      0.00%     64.11% # Class of committed instruction
system.cpu1.commit.op_class_0::FloatAdd             0      0.00%     64.11% # Class of committed instruction
system.cpu1.commit.op_class_0::FloatCmp             0      0.00%     64.11% # Class of committed instruction
system.cpu1.commit.op_class_0::FloatCvt             0      0.00%     64.11% # Class of committed instruction
system.cpu1.commit.op_class_0::FloatMult            0      0.00%     64.11% # Class of committed instruction
system.cpu1.commit.op_class_0::FloatMultAcc            0      0.00%     64.11% # Class of committed instruction
system.cpu1.commit.op_class_0::FloatDiv             0      0.00%     64.11% # Class of committed instruction
system.cpu1.commit.op_class_0::FloatMisc            0      0.00%     64.11% # Class of committed instruction
system.cpu1.commit.op_class_0::FloatSqrt            0      0.00%     64.11% # Class of committed instruction
system.cpu1.commit.op_class_0::SimdAdd              0      0.00%     64.11% # Class of committed instruction
system.cpu1.commit.op_class_0::SimdAddAcc            0      0.00%     64.11% # Class of committed instruction
system.cpu1.commit.op_class_0::SimdAlu              0      0.00%     64.11% # Class of committed instruction
system.cpu1.commit.op_class_0::SimdCmp              0      0.00%     64.11% # Class of committed instruction
system.cpu1.commit.op_class_0::SimdCvt              0      0.00%     64.11% # Class of committed instruction
system.cpu1.commit.op_class_0::SimdMisc             0      0.00%     64.11% # Class of committed instruction
system.cpu1.commit.op_class_0::SimdMult             0      0.00%     64.11% # Class of committed instruction
system.cpu1.commit.op_class_0::SimdMultAcc            0      0.00%     64.11% # Class of committed instruction
system.cpu1.commit.op_class_0::SimdShift            0      0.00%     64.11% # Class of committed instruction
system.cpu1.commit.op_class_0::SimdShiftAcc            0      0.00%     64.11% # Class of committed instruction
system.cpu1.commit.op_class_0::SimdDiv              0      0.00%     64.11% # Class of committed instruction
system.cpu1.commit.op_class_0::SimdSqrt             0      0.00%     64.11% # Class of committed instruction
system.cpu1.commit.op_class_0::SimdFloatAdd            0      0.00%     64.11% # Class of committed instruction
system.cpu1.commit.op_class_0::SimdFloatAlu            0      0.00%     64.11% # Class of committed instruction
system.cpu1.commit.op_class_0::SimdFloatCmp            0      0.00%     64.11% # Class of committed instruction
system.cpu1.commit.op_class_0::SimdFloatCvt            0      0.00%     64.11% # Class of committed instruction
system.cpu1.commit.op_class_0::SimdFloatDiv            0      0.00%     64.11% # Class of committed instruction
system.cpu1.commit.op_class_0::SimdFloatMisc            0      0.00%     64.11% # Class of committed instruction
system.cpu1.commit.op_class_0::SimdFloatMult            0      0.00%     64.11% # Class of committed instruction
system.cpu1.commit.op_class_0::SimdFloatMultAcc            0      0.00%     64.11% # Class of committed instruction
system.cpu1.commit.op_class_0::SimdFloatSqrt            0      0.00%     64.11% # Class of committed instruction
system.cpu1.commit.op_class_0::SimdReduceAdd            0      0.00%     64.11% # Class of committed instruction
system.cpu1.commit.op_class_0::SimdReduceAlu            0      0.00%     64.11% # Class of committed instruction
system.cpu1.commit.op_class_0::SimdReduceCmp            0      0.00%     64.11% # Class of committed instruction
system.cpu1.commit.op_class_0::SimdFloatReduceAdd            0      0.00%     64.11% # Class of committed instruction
system.cpu1.commit.op_class_0::SimdFloatReduceCmp            0      0.00%     64.11% # Class of committed instruction
system.cpu1.commit.op_class_0::SimdAes              0      0.00%     64.11% # Class of committed instruction
system.cpu1.commit.op_class_0::SimdAesMix            0      0.00%     64.11% # Class of committed instruction
system.cpu1.commit.op_class_0::SimdSha1Hash            0      0.00%     64.11% # Class of committed instruction
system.cpu1.commit.op_class_0::SimdSha1Hash2            0      0.00%     64.11% # Class of committed instruction
system.cpu1.commit.op_class_0::SimdSha256Hash            0      0.00%     64.11% # Class of committed instruction
system.cpu1.commit.op_class_0::SimdSha256Hash2            0      0.00%     64.11% # Class of committed instruction
system.cpu1.commit.op_class_0::SimdShaSigma2            0      0.00%     64.11% # Class of committed instruction
system.cpu1.commit.op_class_0::SimdShaSigma3            0      0.00%     64.11% # Class of committed instruction
system.cpu1.commit.op_class_0::SimdPredAlu            0      0.00%     64.11% # Class of committed instruction
system.cpu1.commit.op_class_0::MemRead        5829619     29.51%     93.62% # Class of committed instruction
system.cpu1.commit.op_class_0::MemWrite       1259667      6.38%    100.00% # Class of committed instruction
system.cpu1.commit.op_class_0::FloatMemRead            0      0.00%    100.00% # Class of committed instruction
system.cpu1.commit.op_class_0::FloatMemWrite           12      0.00%    100.00% # Class of committed instruction
system.cpu1.commit.op_class_0::IprAccess            0      0.00%    100.00% # Class of committed instruction
system.cpu1.commit.op_class_0::InstPrefetch            0      0.00%    100.00% # Class of committed instruction
system.cpu1.commit.op_class_0::total         19754729                       # Class of committed instruction
system.cpu1.commit.refs                       7089298                       # Number of memory references committed
system.cpu1.commit.swp_count                        0                       # Number of s/w prefetches committed
system.cpu1.commit.vec_insts                        0                       # Number of committed Vector instructions.
system.cpu1.committedInsts                   19245330                       # Number of Instructions Simulated
system.cpu1.committedOps                     19754729                       # Number of Ops (including micro ops) Simulated
system.cpu1.cpi                              6.039140                       # CPI: Cycles Per Instruction
system.cpu1.cpi_total                        6.039140                       # CPI: Total CPI of All Threads
system.cpu1.decode.BlockedCycles            102290903                       # Number of cycles decode is blocked
system.cpu1.decode.BranchMispred               107311                       # Number of times decode detected a branch misprediction
system.cpu1.decode.BranchResolved             2823483                       # Number of times decode resolved a branch
system.cpu1.decode.DecodedInsts              23397468                       # Number of instructions handled by decode
system.cpu1.decode.IdleCycles                 3654897                       # Number of cycles decode is idle
system.cpu1.decode.RunCycles                  8404146                       # Number of cycles decode is running
system.cpu1.decode.SquashCycles                290937                       # Number of cycles decode is squashing
system.cpu1.decode.SquashedInsts               260889                       # Number of squashed instructions handled by decode
system.cpu1.decode.UnblockCycles              1198354                       # Number of cycles decode is unblocking
system.cpu1.dtb.accesses                            0                       # DTB accesses
system.cpu1.dtb.hits                                0                       # DTB hits
system.cpu1.dtb.misses                              0                       # DTB misses
system.cpu1.dtb.read_accesses                       0                       # DTB read accesses
system.cpu1.dtb.read_hits                           0                       # DTB read hits
system.cpu1.dtb.read_misses                         0                       # DTB read misses
system.cpu1.dtb.write_accesses                      0                       # DTB write accesses
system.cpu1.dtb.write_hits                          0                       # DTB write hits
system.cpu1.dtb.write_misses                        0                       # DTB write misses
system.cpu1.fetch.Branches                    5546694                       # Number of branches that fetch encountered
system.cpu1.fetch.CacheLines                  3335617                       # Number of cache lines fetched
system.cpu1.fetch.Cycles                    111796887                       # Number of cycles fetch has run and was not squashing or blocked
system.cpu1.fetch.IcacheSquashes                36910                       # Number of outstanding Icache misses that were squashed
system.cpu1.fetch.IcacheWaitRetryStallCycles           30                       # Number of stall cycles due to full MSHR
system.cpu1.fetch.Insts                      23925660                       # Number of instructions fetch has processed
system.cpu1.fetch.MiscStallCycles                   4                       # Number of cycles fetch has spent waiting on interrupts, or bad addresses, or out of MSHRs
system.cpu1.fetch.SquashCycles                 784544                       # Number of cycles fetch has spent squashing
system.cpu1.fetch.branchRate                 0.047724                       # Number of branch fetches per cycle
system.cpu1.fetch.icacheStallCycles           3650044                       # Number of cycles fetch is stalled on an Icache miss
system.cpu1.fetch.predictedBranches           3093927                       # Number of branches that fetch has predicted taken
system.cpu1.fetch.rate                       0.205856                       # Number of inst fetches per cycle
system.cpu1.fetch.rateDist::samples         115839237                       # Number of instructions fetched each cycle (Total)
system.cpu1.fetch.rateDist::mean             0.210948                       # Number of instructions fetched each cycle (Total)
system.cpu1.fetch.rateDist::stdev            0.642399                       # Number of instructions fetched each cycle (Total)
system.cpu1.fetch.rateDist::underflows              0      0.00%      0.00% # Number of instructions fetched each cycle (Total)
system.cpu1.fetch.rateDist::0               100907068     87.11%     87.11% # Number of instructions fetched each cycle (Total)
system.cpu1.fetch.rateDist::1                 8900636      7.68%     94.79% # Number of instructions fetched each cycle (Total)
system.cpu1.fetch.rateDist::2                 3547687      3.06%     97.86% # Number of instructions fetched each cycle (Total)
system.cpu1.fetch.rateDist::3                 1779197      1.54%     99.39% # Number of instructions fetched each cycle (Total)
system.cpu1.fetch.rateDist::4                  432841      0.37%     99.77% # Number of instructions fetched each cycle (Total)
system.cpu1.fetch.rateDist::5                  260410      0.22%     99.99% # Number of instructions fetched each cycle (Total)
system.cpu1.fetch.rateDist::6                   10879      0.01%    100.00% # Number of instructions fetched each cycle (Total)
system.cpu1.fetch.rateDist::7                     387      0.00%    100.00% # Number of instructions fetched each cycle (Total)
system.cpu1.fetch.rateDist::8                     132      0.00%    100.00% # Number of instructions fetched each cycle (Total)
system.cpu1.fetch.rateDist::overflows               0      0.00%    100.00% # Number of instructions fetched each cycle (Total)
system.cpu1.fetch.rateDist::min_value               0                       # Number of instructions fetched each cycle (Total)
system.cpu1.fetch.rateDist::max_value               8                       # Number of instructions fetched each cycle (Total)
system.cpu1.fetch.rateDist::total           115839237                       # Number of instructions fetched each cycle (Total)
system.cpu1.fp_regfile_reads                       12                       # number of floating regfile reads
system.cpu1.idleCycles                         386001                       # Total number of cycles that the CPU has spent unscheduled due to idling
system.cpu1.iew.branchMispredicts              312086                       # Number of branch mispredicts detected at execute
system.cpu1.iew.exec_branches                 4782920                       # Number of branches executed
system.cpu1.iew.exec_nop                            0                       # number of nop insts executed
system.cpu1.iew.exec_rate                    0.185602                       # Inst execution rate
system.cpu1.iew.exec_refs                     7771396                       # number of memory reference insts executed
system.cpu1.iew.exec_stores                   1848762                       # Number of stores executed
system.cpu1.iew.exec_swp                            0                       # number of swp insts executed
system.cpu1.iew.iewBlockCycles               86626327                       # Number of cycles IEW is blocking
system.cpu1.iew.iewDispLoadInsts              5997352                       # Number of dispatched load instructions
system.cpu1.iew.iewDispNonSpecInsts            510038                       # Number of dispatched non-speculative instructions
system.cpu1.iew.iewDispSquashedInsts           247472                       # Number of squashed instructions skipped by dispatch
system.cpu1.iew.iewDispStoreInsts             1916828                       # Number of dispatched store instructions
system.cpu1.iew.iewDispatchedInsts           22344730                       # Number of instructions dispatched to IQ
system.cpu1.iew.iewExecLoadInsts              5922634                       # Number of load instructions executed
system.cpu1.iew.iewExecSquashedInsts           304459                       # Number of squashed instructions skipped in execute
system.cpu1.iew.iewExecutedInsts             21571606                       # Number of executed instructions
system.cpu1.iew.iewIQFullEvents                429202                       # Number of times the IQ has become full, causing a stall
system.cpu1.iew.iewIdleCycles                       0                       # Number of cycles IEW is idle
system.cpu1.iew.iewLSQFullEvents              1893969                       # Number of times the LSQ has become full, causing a stall
system.cpu1.iew.iewSquashCycles                290937                       # Number of cycles IEW is squashing
system.cpu1.iew.iewUnblockCycles              2902348                       # Number of cycles IEW is unblocking
system.cpu1.iew.lsq.thread0.blockedLoads            0                       # Number of blocked loads due to partial load-store forwarding
system.cpu1.iew.lsq.thread0.cacheBlocked        20144                       # Number of times an access to memory failed due to the cache being blocked
system.cpu1.iew.lsq.thread0.forwLoads          136660                       # Number of loads that had data forwarded from stores
system.cpu1.iew.lsq.thread0.ignoredResponses         4142                       # Number of memory responses ignored because the instruction is squashed
system.cpu1.iew.lsq.thread0.invAddrLoads            0                       # Number of loads ignored due to an invalid address
system.cpu1.iew.lsq.thread0.invAddrSwpfs            0                       # Number of software prefetches ignored due to an invalid address
system.cpu1.iew.lsq.thread0.memOrderViolation          461                       # Number of memory ordering violations
system.cpu1.iew.lsq.thread0.rescheduledLoads         1287                       # Number of loads that were rescheduled
system.cpu1.iew.lsq.thread0.squashedLoads       676921                       # Number of loads squashed
system.cpu1.iew.lsq.thread0.squashedStores       147961                       # Number of stores squashed
system.cpu1.iew.memOrderViolationEvents           461                       # Number of memory order violations
system.cpu1.iew.predictedNotTakenIncorrect        94190                       # Number of branches that were predicted not taken incorrectly
system.cpu1.iew.predictedTakenIncorrect        217896                       # Number of branches that were predicted taken incorrectly
system.cpu1.iew.wb_consumers                 12308591                       # num instructions consuming a value
system.cpu1.iew.wb_count                     21300219                       # cumulative count of insts written-back
system.cpu1.iew.wb_fanout                    0.847184                       # average fanout of values written-back
system.cpu1.iew.wb_producers                 10427637                       # num instructions producing a value
system.cpu1.iew.wb_rate                      0.183267                       # insts written-back per cycle
system.cpu1.iew.wb_sent                      21307993                       # cumulative count of insts sent to commit
system.cpu1.int_regfile_reads                26885748                       # number of integer regfile reads
system.cpu1.int_regfile_writes               14294282                       # number of integer regfile writes
system.cpu1.ipc                              0.165586                       # IPC: Instructions Per Cycle
system.cpu1.ipc_total                        0.165586                       # IPC: Total IPC of All Threads
system.cpu1.iq.FU_type_0::No_OpClass          1018663      4.66%      4.66% # Type of FU issued
system.cpu1.iq.FU_type_0::IntAlu             12990089     59.38%     64.04% # Type of FU issued
system.cpu1.iq.FU_type_0::IntMult                  49      0.00%     64.04% # Type of FU issued
system.cpu1.iq.FU_type_0::IntDiv                   84      0.00%     64.04% # Type of FU issued
system.cpu1.iq.FU_type_0::FloatAdd                  0      0.00%     64.04% # Type of FU issued
system.cpu1.iq.FU_type_0::FloatCmp                  0      0.00%     64.04% # Type of FU issued
system.cpu1.iq.FU_type_0::FloatCvt                  0      0.00%     64.04% # Type of FU issued
system.cpu1.iq.FU_type_0::FloatMult                 0      0.00%     64.04% # Type of FU issued
system.cpu1.iq.FU_type_0::FloatMultAcc              0      0.00%     64.04% # Type of FU issued
system.cpu1.iq.FU_type_0::FloatDiv                  0      0.00%     64.04% # Type of FU issued
system.cpu1.iq.FU_type_0::FloatMisc                 0      0.00%     64.04% # Type of FU issued
system.cpu1.iq.FU_type_0::FloatSqrt                 0      0.00%     64.04% # Type of FU issued
system.cpu1.iq.FU_type_0::SimdAdd                   0      0.00%     64.04% # Type of FU issued
system.cpu1.iq.FU_type_0::SimdAddAcc                0      0.00%     64.04% # Type of FU issued
system.cpu1.iq.FU_type_0::SimdAlu                   0      0.00%     64.04% # Type of FU issued
system.cpu1.iq.FU_type_0::SimdCmp                   0      0.00%     64.04% # Type of FU issued
system.cpu1.iq.FU_type_0::SimdCvt                   0      0.00%     64.04% # Type of FU issued
system.cpu1.iq.FU_type_0::SimdMisc                  0      0.00%     64.04% # Type of FU issued
system.cpu1.iq.FU_type_0::SimdMult                  0      0.00%     64.04% # Type of FU issued
system.cpu1.iq.FU_type_0::SimdMultAcc               0      0.00%     64.04% # Type of FU issued
system.cpu1.iq.FU_type_0::SimdShift                 0      0.00%     64.04% # Type of FU issued
system.cpu1.iq.FU_type_0::SimdShiftAcc              0      0.00%     64.04% # Type of FU issued
system.cpu1.iq.FU_type_0::SimdDiv                   0      0.00%     64.04% # Type of FU issued
system.cpu1.iq.FU_type_0::SimdSqrt                  0      0.00%     64.04% # Type of FU issued
system.cpu1.iq.FU_type_0::SimdFloatAdd              0      0.00%     64.04% # Type of FU issued
system.cpu1.iq.FU_type_0::SimdFloatAlu              0      0.00%     64.04% # Type of FU issued
system.cpu1.iq.FU_type_0::SimdFloatCmp              0      0.00%     64.04% # Type of FU issued
system.cpu1.iq.FU_type_0::SimdFloatCvt              0      0.00%     64.04% # Type of FU issued
system.cpu1.iq.FU_type_0::SimdFloatDiv              0      0.00%     64.04% # Type of FU issued
system.cpu1.iq.FU_type_0::SimdFloatMisc             0      0.00%     64.04% # Type of FU issued
system.cpu1.iq.FU_type_0::SimdFloatMult             0      0.00%     64.04% # Type of FU issued
system.cpu1.iq.FU_type_0::SimdFloatMultAcc            0      0.00%     64.04% # Type of FU issued
system.cpu1.iq.FU_type_0::SimdFloatSqrt             0      0.00%     64.04% # Type of FU issued
system.cpu1.iq.FU_type_0::SimdReduceAdd             0      0.00%     64.04% # Type of FU issued
system.cpu1.iq.FU_type_0::SimdReduceAlu             0      0.00%     64.04% # Type of FU issued
system.cpu1.iq.FU_type_0::SimdReduceCmp             0      0.00%     64.04% # Type of FU issued
system.cpu1.iq.FU_type_0::SimdFloatReduceAdd            0      0.00%     64.04% # Type of FU issued
system.cpu1.iq.FU_type_0::SimdFloatReduceCmp            0      0.00%     64.04% # Type of FU issued
system.cpu1.iq.FU_type_0::SimdAes                   0      0.00%     64.04% # Type of FU issued
system.cpu1.iq.FU_type_0::SimdAesMix                0      0.00%     64.04% # Type of FU issued
system.cpu1.iq.FU_type_0::SimdSha1Hash              0      0.00%     64.04% # Type of FU issued
system.cpu1.iq.FU_type_0::SimdSha1Hash2             0      0.00%     64.04% # Type of FU issued
system.cpu1.iq.FU_type_0::SimdSha256Hash            0      0.00%     64.04% # Type of FU issued
system.cpu1.iq.FU_type_0::SimdSha256Hash2            0      0.00%     64.04% # Type of FU issued
system.cpu1.iq.FU_type_0::SimdShaSigma2             0      0.00%     64.04% # Type of FU issued
system.cpu1.iq.FU_type_0::SimdShaSigma3             0      0.00%     64.04% # Type of FU issued
system.cpu1.iq.FU_type_0::SimdPredAlu               0      0.00%     64.04% # Type of FU issued
system.cpu1.iq.FU_type_0::MemRead             6512777     29.77%     93.81% # Type of FU issued
system.cpu1.iq.FU_type_0::MemWrite            1354391      6.19%    100.00% # Type of FU issued
system.cpu1.iq.FU_type_0::FloatMemRead              0      0.00%    100.00% # Type of FU issued
system.cpu1.iq.FU_type_0::FloatMemWrite            12      0.00%    100.00% # Type of FU issued
system.cpu1.iq.FU_type_0::IprAccess                 0      0.00%    100.00% # Type of FU issued
system.cpu1.iq.FU_type_0::InstPrefetch              0      0.00%    100.00% # Type of FU issued
system.cpu1.iq.FU_type_0::total              21876065                       # Type of FU issued
system.cpu1.iq.fp_alu_accesses                     14                       # Number of floating point alu accesses
system.cpu1.iq.fp_inst_queue_reads                 26                       # Number of floating instruction queue reads
system.cpu1.iq.fp_inst_queue_wakeup_accesses           12                       # Number of floating instruction queue wakeup accesses
system.cpu1.iq.fp_inst_queue_writes                12                       # Number of floating instruction queue writes
system.cpu1.iq.fu_busy_cnt                     612828                       # FU busy when requested
system.cpu1.iq.fu_busy_rate                  0.028014                       # FU busy rate (busy events/executed inst)
system.cpu1.iq.fu_full::No_OpClass                  0      0.00%      0.00% # attempts to use FU when none available
system.cpu1.iq.fu_full::IntAlu                 135807     22.16%     22.16% # attempts to use FU when none available
system.cpu1.iq.fu_full::IntMult                     0      0.00%     22.16% # attempts to use FU when none available
system.cpu1.iq.fu_full::IntDiv                      0      0.00%     22.16% # attempts to use FU when none available
system.cpu1.iq.fu_full::FloatAdd                    0      0.00%     22.16% # attempts to use FU when none available
system.cpu1.iq.fu_full::FloatCmp                    0      0.00%     22.16% # attempts to use FU when none available
system.cpu1.iq.fu_full::FloatCvt                    0      0.00%     22.16% # attempts to use FU when none available
system.cpu1.iq.fu_full::FloatMult                   0      0.00%     22.16% # attempts to use FU when none available
system.cpu1.iq.fu_full::FloatMultAcc                0      0.00%     22.16% # attempts to use FU when none available
system.cpu1.iq.fu_full::FloatDiv                    0      0.00%     22.16% # attempts to use FU when none available
system.cpu1.iq.fu_full::FloatMisc                   0      0.00%     22.16% # attempts to use FU when none available
system.cpu1.iq.fu_full::FloatSqrt                   0      0.00%     22.16% # attempts to use FU when none available
system.cpu1.iq.fu_full::SimdAdd                     0      0.00%     22.16% # attempts to use FU when none available
system.cpu1.iq.fu_full::SimdAddAcc                  0      0.00%     22.16% # attempts to use FU when none available
system.cpu1.iq.fu_full::SimdAlu                     0      0.00%     22.16% # attempts to use FU when none available
system.cpu1.iq.fu_full::SimdCmp                     0      0.00%     22.16% # attempts to use FU when none available
system.cpu1.iq.fu_full::SimdCvt                     0      0.00%     22.16% # attempts to use FU when none available
system.cpu1.iq.fu_full::SimdMisc                    0      0.00%     22.16% # attempts to use FU when none available
system.cpu1.iq.fu_full::SimdMult                    0      0.00%     22.16% # attempts to use FU when none available
system.cpu1.iq.fu_full::SimdMultAcc                 0      0.00%     22.16% # attempts to use FU when none available
system.cpu1.iq.fu_full::SimdShift                   0      0.00%     22.16% # attempts to use FU when none available
system.cpu1.iq.fu_full::SimdShiftAcc                0      0.00%     22.16% # attempts to use FU when none available
system.cpu1.iq.fu_full::SimdDiv                     0      0.00%     22.16% # attempts to use FU when none available
system.cpu1.iq.fu_full::SimdSqrt                    0      0.00%     22.16% # attempts to use FU when none available
system.cpu1.iq.fu_full::SimdFloatAdd                0      0.00%     22.16% # attempts to use FU when none available
system.cpu1.iq.fu_full::SimdFloatAlu                0      0.00%     22.16% # attempts to use FU when none available
system.cpu1.iq.fu_full::SimdFloatCmp                0      0.00%     22.16% # attempts to use FU when none available
system.cpu1.iq.fu_full::SimdFloatCvt                0      0.00%     22.16% # attempts to use FU when none available
system.cpu1.iq.fu_full::SimdFloatDiv                0      0.00%     22.16% # attempts to use FU when none available
system.cpu1.iq.fu_full::SimdFloatMisc               0      0.00%     22.16% # attempts to use FU when none available
system.cpu1.iq.fu_full::SimdFloatMult               0      0.00%     22.16% # attempts to use FU when none available
system.cpu1.iq.fu_full::SimdFloatMultAcc            0      0.00%     22.16% # attempts to use FU when none available
system.cpu1.iq.fu_full::SimdFloatSqrt               0      0.00%     22.16% # attempts to use FU when none available
system.cpu1.iq.fu_full::SimdReduceAdd               0      0.00%     22.16% # attempts to use FU when none available
system.cpu1.iq.fu_full::SimdReduceAlu               0      0.00%     22.16% # attempts to use FU when none available
system.cpu1.iq.fu_full::SimdReduceCmp               0      0.00%     22.16% # attempts to use FU when none available
system.cpu1.iq.fu_full::SimdFloatReduceAdd            0      0.00%     22.16% # attempts to use FU when none available
system.cpu1.iq.fu_full::SimdFloatReduceCmp            0      0.00%     22.16% # attempts to use FU when none available
system.cpu1.iq.fu_full::SimdAes                     0      0.00%     22.16% # attempts to use FU when none available
system.cpu1.iq.fu_full::SimdAesMix                  0      0.00%     22.16% # attempts to use FU when none available
system.cpu1.iq.fu_full::SimdSha1Hash                0      0.00%     22.16% # attempts to use FU when none available
system.cpu1.iq.fu_full::SimdSha1Hash2               0      0.00%     22.16% # attempts to use FU when none available
system.cpu1.iq.fu_full::SimdSha256Hash              0      0.00%     22.16% # attempts to use FU when none available
system.cpu1.iq.fu_full::SimdSha256Hash2             0      0.00%     22.16% # attempts to use FU when none available
system.cpu1.iq.fu_full::SimdShaSigma2               0      0.00%     22.16% # attempts to use FU when none available
system.cpu1.iq.fu_full::SimdShaSigma3               0      0.00%     22.16% # attempts to use FU when none available
system.cpu1.iq.fu_full::SimdPredAlu                 0      0.00%     22.16% # attempts to use FU when none available
system.cpu1.iq.fu_full::MemRead                420370     68.60%     90.76% # attempts to use FU when none available
[...]
system.cpu1.dcache.WriteReq_mshr_miss_rate::total     0.045861                       # mshr miss rate for WriteReq accesses
system.cpu1.dcache.WriteReq_avg_mshr_miss_latency::.cpu1.data 127998.446538                       # average WriteReq mshr miss latency
system.cpu1.dcache.WriteReq_avg_mshr_miss_latency::total 127998.446538                       # average WriteReq mshr miss latency
system.cpu1.dcache.LoadLockedReq_hits::.cpu1.data       305503                       # number of LoadLockedReq hits
system.cpu1.dcache.LoadLockedReq_hits::total       305503                       # number of LoadLockedReq hits
system.cpu1.dcache.LoadLockedReq_misses::.cpu1.data         9189                       # number of LoadLockedReq misses
system.cpu1.dcache.LoadLockedReq_misses::total         9189                       # number of LoadLockedReq misses
system.cpu1.dcache.LoadLockedReq_miss_latency::.cpu1.data    146815000                       # number of LoadLockedReq miss cycles
system.cpu1.dcache.LoadLockedReq_miss_latency::total    146815000                       # number of LoadLockedReq miss cycles
system.cpu1.dcache.LoadLockedReq_accesses::.cpu1.data       314692                       # number of LoadLockedReq accesses(hits+misses)
system.cpu1.dcache.LoadLockedReq_accesses::total       314692                       # number of LoadLockedReq accesses(hits+misses)
system.cpu1.dcache.LoadLockedReq_miss_rate::.cpu1.data     0.029200                       # miss rate for LoadLockedReq accesses
system.cpu1.dcache.LoadLockedReq_miss_rate::total     0.029200                       # miss rate for LoadLockedReq accesses
system.cpu1.dcache.LoadLockedReq_avg_miss_latency::.cpu1.data 15977.255414                       # average LoadLockedReq miss latency
system.cpu1.dcache.LoadLockedReq_avg_miss_latency::total 15977.255414                       # average LoadLockedReq miss latency
system.cpu1.dcache.LoadLockedReq_mshr_hits::.cpu1.data          156                       # number of LoadLockedReq MSHR hits
system.cpu1.dcache.LoadLockedReq_mshr_hits::total          156                       # number of LoadLockedReq MSHR hits
system.cpu1.dcache.LoadLockedReq_mshr_misses::.cpu1.data         9033                       # number of LoadLockedReq MSHR misses
system.cpu1.dcache.LoadLockedReq_mshr_misses::total         9033                       # number of LoadLockedReq MSHR misses
system.cpu1.dcache.LoadLockedReq_mshr_miss_latency::.cpu1.data    128085000                       # number of LoadLockedReq MSHR miss cycles
system.cpu1.dcache.LoadLockedReq_mshr_miss_latency::total    128085000                       # number of LoadLockedReq MSHR miss cycles
system.cpu1.dcache.LoadLockedReq_mshr_miss_rate::.cpu1.data     0.028704                       # mshr miss rate for LoadLockedReq accesses
system.cpu1.dcache.LoadLockedReq_mshr_miss_rate::total     0.028704                       # mshr miss rate for LoadLockedReq accesses
system.cpu1.dcache.LoadLockedReq_avg_mshr_miss_latency::.cpu1.data 14179.674527                       # average LoadLockedReq mshr miss latency
system.cpu1.dcache.LoadLockedReq_avg_mshr_miss_latency::total 14179.674527                       # average LoadLockedReq mshr miss latency
system.cpu1.dcache.StoreCondReq_hits::.cpu1.data       313631                       # number of StoreCondReq hits
system.cpu1.dcache.StoreCondReq_hits::total       313631                       # number of StoreCondReq hits
system.cpu1.dcache.StoreCondReq_misses::.cpu1.data          590                       # number of StoreCondReq misses
system.cpu1.dcache.StoreCondReq_misses::total          590                       # number of StoreCondReq misses
system.cpu1.dcache.StoreCondReq_miss_latency::.cpu1.data      5681500                       # number of StoreCondReq miss cycles
system.cpu1.dcache.StoreCondReq_miss_latency::total      5681500                       # number of StoreCondReq miss cycles
system.cpu1.dcache.StoreCondReq_accesses::.cpu1.data       314221                       # number of StoreCondReq accesses(hits+misses)
system.cpu1.dcache.StoreCondReq_accesses::total       314221                       # number of StoreCondReq accesses(hits+misses)
system.cpu1.dcache.StoreCondReq_miss_rate::.cpu1.data     0.001878                       # miss rate for StoreCondReq accesses
system.cpu1.dcache.StoreCondReq_miss_rate::total     0.001878                       # miss rate for StoreCondReq accesses
system.cpu1.dcache.StoreCondReq_avg_miss_latency::.cpu1.data  9629.661017                       # average StoreCondReq miss latency
system.cpu1.dcache.StoreCondReq_avg_miss_latency::total  9629.661017                       # average StoreCondReq miss latency
system.cpu1.dcache.StoreCondReq_mshr_misses::.cpu1.data          577                       # number of StoreCondReq MSHR misses
system.cpu1.dcache.StoreCondReq_mshr_misses::total          577                       # number of StoreCondReq MSHR misses
system.cpu1.dcache.StoreCondReq_mshr_miss_latency::.cpu1.data      5173500                       # number of StoreCondReq MSHR miss cycles
system.cpu1.dcache.StoreCondReq_mshr_miss_latency::total      5173500                       # number of StoreCondReq MSHR miss cycles
system.cpu1.dcache.StoreCondReq_mshr_miss_rate::.cpu1.data     0.001836                       # mshr miss rate for StoreCondReq accesses
system.cpu1.dcache.StoreCondReq_mshr_miss_rate::total     0.001836                       # mshr miss rate for StoreCondReq accesses
system.cpu1.dcache.StoreCondReq_avg_mshr_miss_latency::.cpu1.data  8966.204506                       # average StoreCondReq mshr miss latency
system.cpu1.dcache.StoreCondReq_avg_mshr_miss_latency::total  8966.204506                       # average StoreCondReq mshr miss latency
system.cpu1.dcache.StoreCondFailReq_miss_latency::.cpu1.data       839500                       # number of StoreCondFailReq miss cycles
system.cpu1.dcache.StoreCondFailReq_miss_latency::total       839500                       # number of StoreCondFailReq miss cycles
system.cpu1.dcache.StoreCondFailReq_avg_miss_latency::.cpu1.data          inf                       # average StoreCondFailReq miss latency
system.cpu1.dcache.StoreCondFailReq_avg_miss_latency::total          inf                       # average StoreCondFailReq miss latency
system.cpu1.dcache.StoreCondFailReq_mshr_miss_latency::.cpu1.data       770500                       # number of StoreCondFailReq MSHR miss cycles
system.cpu1.dcache.StoreCondFailReq_mshr_miss_latency::total       770500                       # number of StoreCondFailReq MSHR miss cycles
system.cpu1.dcache.StoreCondFailReq_avg_mshr_miss_latency::.cpu1.data          inf                       # average StoreCondFailReq mshr miss latency
system.cpu1.dcache.StoreCondFailReq_avg_mshr_miss_latency::total          inf                       # average StoreCondFailReq mshr miss latency
system.cpu1.dcache.SwapReq_hits::.cpu1.data          322                       # number of SwapReq hits
system.cpu1.dcache.SwapReq_hits::total            322                       # number of SwapReq hits
system.cpu1.dcache.SwapReq_misses::.cpu1.data          741                       # number of SwapReq misses
system.cpu1.dcache.SwapReq_misses::total          741                       # number of SwapReq misses
system.cpu1.dcache.SwapReq_miss_latency::.cpu1.data     14698500                       # number of SwapReq miss cycles
system.cpu1.dcache.SwapReq_miss_latency::total     14698500                       # number of SwapReq miss cycles
system.cpu1.dcache.SwapReq_accesses::.cpu1.data         1063                       # number of SwapReq accesses(hits+misses)
system.cpu1.dcache.SwapReq_accesses::total         1063                       # number of SwapReq accesses(hits+misses)
system.cpu1.dcache.SwapReq_miss_rate::.cpu1.data     0.697084                       # miss rate for SwapReq accesses
system.cpu1.dcache.SwapReq_miss_rate::total     0.697084                       # miss rate for SwapReq accesses
system.cpu1.dcache.SwapReq_avg_miss_latency::.cpu1.data 19836.032389                       # average SwapReq miss latency
system.cpu1.dcache.SwapReq_avg_miss_latency::total 19836.032389                       # average SwapReq miss latency
system.cpu1.dcache.SwapReq_mshr_misses::.cpu1.data          741                       # number of SwapReq MSHR misses
system.cpu1.dcache.SwapReq_mshr_misses::total          741                       # number of SwapReq MSHR misses
system.cpu1.dcache.SwapReq_mshr_miss_latency::.cpu1.data     13957500                       # number of SwapReq MSHR miss cycles
system.cpu1.dcache.SwapReq_mshr_miss_latency::total     13957500                       # number of SwapReq MSHR miss cycles
system.cpu1.dcache.SwapReq_mshr_miss_rate::.cpu1.data     0.697084                       # mshr miss rate for SwapReq accesses
system.cpu1.dcache.SwapReq_mshr_miss_rate::total     0.697084                       # mshr miss rate for SwapReq accesses
system.cpu1.dcache.SwapReq_avg_mshr_miss_latency::.cpu1.data 18836.032389                       # average SwapReq mshr miss latency
system.cpu1.dcache.SwapReq_avg_mshr_miss_latency::total 18836.032389                       # average SwapReq mshr miss latency
system.cpu1.dcache.tags.pwrStateResidencyTicks::UNDEFINED  73345202000                       # Cumulative time (in ticks) in various power states
system.cpu1.dcache.tags.tagsinuse           31.429623                       # Cycle average of tags in use
system.cpu1.dcache.tags.total_refs           10566256                       # Total number of references to valid blocks.
system.cpu1.dcache.tags.sampled_refs           743537                       # Sample count of references to valid blocks.
system.cpu1.dcache.tags.avg_refs            14.210801                       # Average number of references to valid blocks.
system.cpu1.dcache.tags.warmup_cycle                0                       # Cycle when the warmup percentage was hit.
system.cpu1.dcache.tags.occ_blocks::.cpu1.data    31.429623                       # Average occupied blocks per requestor
system.cpu1.dcache.tags.occ_percent::.cpu1.data     0.982176                       # Average percentage of cache occupancy
system.cpu1.dcache.tags.occ_percent::total     0.982176                       # Average percentage of cache occupancy
system.cpu1.dcache.tags.occ_task_id_blocks::1024           27                       # Occupied blocks per task id
system.cpu1.dcache.tags.age_task_id_blocks_1024::1           27                       # Occupied blocks per task id
system.cpu1.dcache.tags.occ_task_id_percent::1024     0.843750                       # Percentage of cache occupancy per task id
system.cpu1.dcache.tags.tag_accesses         24926449                       # Number of tag accesses
system.cpu1.dcache.tags.data_accesses        24926449                       # Number of data accesses
system.cpu_clk_domain.clock                       500                       # Clock period in ticks
system.tol2bus.pwrStateResidencyTicks::UNDEFINED  73345202000                       # Cumulative time (in ticks) in various power states
system.tol2bus.trans_dist::ReadResp           3214450                       # Transaction distribution
system.tol2bus.trans_dist::ReadRespWithInvalidate            1                       # Transaction distribution
system.tol2bus.trans_dist::WritebackDirty       821841                       # Transaction distribution
system.tol2bus.trans_dist::WritebackClean      2844972                       # Transaction distribution
system.tol2bus.trans_dist::CleanEvict         4781059                       # Transaction distribution
system.tol2bus.trans_dist::HardPFReq           678187                       # Transaction distribution
system.tol2bus.trans_dist::HardPFResp               2                       # Transaction distribution
system.tol2bus.trans_dist::UpgradeReq            3170                       # Transaction distribution
system.tol2bus.trans_dist::SCUpgradeReq          2646                       # Transaction distribution
system.tol2bus.trans_dist::UpgradeResp           5816                       # Transaction distribution
system.tol2bus.trans_dist::SCUpgradeFailReq          226                       # Transaction distribution
system.tol2bus.trans_dist::UpgradeFailResp          226                       # Transaction distribution
system.tol2bus.trans_dist::ReadExReq           105049                       # Transaction distribution
system.tol2bus.trans_dist::ReadExResp          105049                       # Transaction distribution
system.tol2bus.trans_dist::ReadCleanReq        293541                       # Transaction distribution
system.tol2bus.trans_dist::ReadSharedReq      2920911                       # Transaction distribution
system.tol2bus.trans_dist::InvalidateReq          123                       # Transaction distribution
system.tol2bus.trans_dist::InvalidateResp          123                       # Transaction distribution
system.tol2bus.pkt_count_system.cpu0.icache.mem_side::system.l2.cpu_side       831584                       # Packet count per connected master and slave (bytes)
system.tol2bus.pkt_count_system.cpu0.dcache.mem_side::system.l2.cpu_side      3384559                       # Packet count per connected master and slave (bytes)
system.tol2bus.pkt_count_system.cpu1.icache.mem_side::system.l2.cpu_side        16083                       # Packet count per connected master and slave (bytes)
system.tol2bus.pkt_count_system.cpu1.dcache.mem_side::system.l2.cpu_side      2226576                       # Packet count per connected master and slave (bytes)
system.tol2bus.pkt_count_system.cpu2.icache.mem_side::system.l2.cpu_side        16587                       # Packet count per connected master and slave (bytes)
system.tol2bus.pkt_count_system.cpu2.dcache.mem_side::system.l2.cpu_side      1842294                       # Packet count per connected master and slave (bytes)
system.tol2bus.pkt_count_system.cpu3.icache.mem_side::system.l2.cpu_side        16341                       # Packet count per connected master and slave (bytes)
system.tol2bus.pkt_count_system.cpu3.dcache.mem_side::system.l2.cpu_side      1615329                       # Packet count per connected master and slave (bytes)
system.tol2bus.pkt_count::total               9949353                       # Packet count per connected master and slave (bytes)
system.tol2bus.pkt_size_system.cpu0.icache.mem_side::system.l2.cpu_side     35480320                       # Cumulative packet size per connected master and slave (bytes)
system.tol2bus.pkt_size_system.cpu0.dcache.mem_side::system.l2.cpu_side    144197696                       # Cumulative packet size per connected master and slave (bytes)
system.tol2bus.pkt_size_system.cpu1.icache.mem_side::system.l2.cpu_side       686208                       # Cumulative packet size per connected master and slave (bytes)
system.tol2bus.pkt_size_system.cpu1.dcache.mem_side::system.l2.cpu_side     94814464                       # Cumulative packet size per connected master and slave (bytes)
system.tol2bus.pkt_size_system.cpu2.icache.mem_side::system.l2.cpu_side       707712                       # Cumulative packet size per connected master and slave (bytes)
system.tol2bus.pkt_size_system.cpu2.dcache.mem_side::system.l2.cpu_side     78432128                       # Cumulative packet size per connected master and slave (bytes)
system.tol2bus.pkt_size_system.cpu3.icache.mem_side::system.l2.cpu_side       697216                       # Cumulative packet size per connected master and slave (bytes)
system.tol2bus.pkt_size_system.cpu3.dcache.mem_side::system.l2.cpu_side     68760000                       # Cumulative packet size per connected master and slave (bytes)
system.tol2bus.pkt_size::total              423775744                       # Cumulative packet size per connected master and slave (bytes)
system.tol2bus.snoops                         5828041                       # Total snoops (count)
system.tol2bus.snoopTraffic                  23363008                       # Total snoop traffic (bytes)
system.tol2bus.snoop_fanout::samples          9141548                       # Request fanout histogram
system.tol2bus.snoop_fanout::mean            0.338136                       # Request fanout histogram
system.tol2bus.snoop_fanout::stdev           0.625527                       # Request fanout histogram
system.tol2bus.snoop_fanout::underflows             0      0.00%      0.00% # Request fanout histogram
system.tol2bus.snoop_fanout::0                6536757     71.51%     71.51% # Request fanout histogram
system.tol2bus.snoop_fanout::1                2353922     25.75%     97.26% # Request fanout histogram
system.tol2bus.snoop_fanout::2                  59248      0.65%     97.90% # Request fanout histogram
system.tol2bus.snoop_fanout::3                 147815      1.62%     99.52% # Request fanout histogram
system.tol2bus.snoop_fanout::4                  43805      0.48%    100.00% # Request fanout histogram
system.tol2bus.snoop_fanout::5                      1      0.00%    100.00% # Request fanout histogram
system.tol2bus.snoop_fanout::6                      0      0.00%    100.00% # Request fanout histogram
system.tol2bus.snoop_fanout::7                      0      0.00%    100.00% # Request fanout histogram
system.tol2bus.snoop_fanout::8                      0      0.00%    100.00% # Request fanout histogram
system.tol2bus.snoop_fanout::overflows              0      0.00%    100.00% # Request fanout histogram
system.tol2bus.snoop_fanout::min_value              0                       # Request fanout histogram
system.tol2bus.snoop_fanout::max_value              5                       # Request fanout histogram
system.tol2bus.snoop_fanout::total            9141548                       # Request fanout histogram
system.tol2bus.reqLayer0.occupancy         6629991456                       # Layer occupancy (ticks)
system.tol2bus.reqLayer0.utilization              9.0                       # Layer utilization (%)
system.tol2bus.respLayer5.occupancy         924603572                       # Layer occupancy (ticks)
system.tol2bus.respLayer5.utilization             1.3                       # Layer utilization (%)
system.tol2bus.respLayer4.occupancy           8630116                       # Layer occupancy (ticks)
system.tol2bus.respLayer4.utilization             0.0                       # Layer utilization (%)
system.tol2bus.respLayer7.occupancy         810956391                       # Layer occupancy (ticks)
system.tol2bus.respLayer7.utilization             1.1                       # Layer utilization (%)
system.tol2bus.respLayer6.occupancy           8439310                       # Layer occupancy (ticks)
system.tol2bus.respLayer6.utilization             0.0                       # Layer utilization (%)
system.tol2bus.respLayer1.occupancy        1694765916                       # Layer occupancy (ticks)
system.tol2bus.respLayer1.utilization             2.3                       # Layer utilization (%)
system.tol2bus.respLayer0.occupancy         415928229                       # Layer occupancy (ticks)
system.tol2bus.respLayer0.utilization             0.6                       # Layer utilization (%)
system.tol2bus.respLayer3.occupancy        1117381399                       # Layer occupancy (ticks)
system.tol2bus.respLayer3.utilization             1.5                       # Layer utilization (%)
system.tol2bus.respLayer2.occupancy           8444451                       # Layer occupancy (ticks)
system.tol2bus.respLayer2.utilization             0.0                       # Layer utilization (%)
system.tol2bus.snoopLayer0.occupancy             3022                       # Layer occupancy (ticks)
system.tol2bus.snoopLayer0.utilization            0.0                       # Layer utilization (%)

---------- End Simulation Statistics   ----------
