
---------- Begin Simulation Statistics ----------
final_tick                               1063493133500                       # Number of ticks from beginning of simulation (restored from checkpoints and never reset)
host_inst_rate                                  98805                       # Simulator instruction rate (inst/s)
host_mem_usage                                 738820                       # Number of bytes of host memory used
host_op_rate                                    99093                       # Simulator op (including micro ops) rate (op/s)
host_seconds                                 14583.57                       # Real time elapsed on the host
host_tick_rate                               72924042                       # Simulator tick rate (ticks/s)
sim_freq                                 1000000000000                       # Frequency of simulated ticks
sim_insts                                  1440929567                       # Number of instructions simulated
sim_ops                                    1445134578                       # Number of ops (including micro ops) simulated
sim_seconds                                  1.063493                       # Number of seconds simulated
sim_ticks                                1063493133500                       # Number of ticks simulated
system.cpu0.branchPred.BTBCorrect                   0                       # Number of correct BTB predictions (this stat may not work properly.
system.cpu0.branchPred.BTBHitPct            87.984358                       # BTB Hit Percentage
system.cpu0.branchPred.BTBHits              168200482                       # Number of BTB hits
system.cpu0.branchPred.BTBLookups           191170892                       # Number of BTB lookups
system.cpu0.branchPred.RASInCorrect                 0                       # Number of incorrect RAS predictions.
system.cpu0.branchPred.condIncorrect         14915204                       # Number of conditional branches incorrect
system.cpu0.branchPred.condPredicted        259345374                       # Number of conditional branches predicted
system.cpu0.branchPred.indirectHits          21857720                       # Number of indirect target hits.
system.cpu0.branchPred.indirectLookups       22406694                       # Number of indirect predictor lookups.
system.cpu0.branchPred.indirectMisses          548974                       # Number of indirect misses.
system.cpu0.branchPred.lookups              329126666                       # Number of BP lookups
system.cpu0.branchPred.usedRAS                      0                       # Number of times the RAS was used to get a target.
system.cpu0.branchPredindirectMispredicted      2148434                       # Number of mispredicted indirect branches.
system.cpu0.commit.amos                       1050459                       # Number of atomic instructions committed
system.cpu0.commit.branchMispredicts          9111748                       # The number of times a branch was mispredicted
system.cpu0.commit.branches                 313654422                       # Number of branches committed
system.cpu0.commit.bw_lim_events             33970476                       # number cycles where commit BW limit reached
system.cpu0.commit.commitNonSpecStalls        3160614                       # The number of times commit has been forced to stall to communicate backwards
system.cpu0.commit.commitSquashedInsts       46718134                       # The number of squashed insts skipped by commit
system.cpu0.commit.committedInsts          1250515376                       # Number of instructions committed
system.cpu0.commit.committedOps            1251569120                       # Number of ops (including micro ops) committed
system.cpu0.commit.committed_per_cycle::samples   1958943480                       # Number of insts commited each cycle
system.cpu0.commit.committed_per_cycle::mean     0.638900                       # Number of insts commited each cycle
system.cpu0.commit.committed_per_cycle::stdev     1.396808                       # Number of insts commited each cycle
system.cpu0.commit.committed_per_cycle::underflows            0      0.00%      0.00% # Number of insts commited each cycle
system.cpu0.commit.committed_per_cycle::0   1356119152     69.23%     69.23% # Number of insts commited each cycle
system.cpu0.commit.committed_per_cycle::1    358120937     18.28%     87.51% # Number of insts commited each cycle
system.cpu0.commit.committed_per_cycle::2     84521546      4.31%     91.82% # Number of insts commited each cycle
system.cpu0.commit.committed_per_cycle::3     82944416      4.23%     96.06% # Number of insts commited each cycle
system.cpu0.commit.committed_per_cycle::4     26102519      1.33%     97.39% # Number of insts commited each cycle
system.cpu0.commit.committed_per_cycle::5      7973180      0.41%     97.80% # Number of insts commited each cycle
system.cpu0.commit.committed_per_cycle::6      4806719      0.25%     98.04% # Number of insts commited each cycle
system.cpu0.commit.committed_per_cycle::7      4384535      0.22%     98.27% # Number of insts commited each cycle
system.cpu0.commit.committed_per_cycle::8     33970476      1.73%    100.00% # Number of insts commited each cycle
system.cpu0.commit.committed_per_cycle::overflows            0      0.00%    100.00% # Number of insts commited each cycle
system.cpu0.commit.committed_per_cycle::min_value            0                       # Number of insts commited each cycle
system.cpu0.commit.committed_per_cycle::max_value            8                       # Number of insts commited each cycle
system.cpu0.commit.committed_per_cycle::total   1958943480                       # Number of insts commited each cycle
system.cpu0.commit.fp_insts                        50                       # Number of committed floating point instructions.
system.cpu0.commit.function_calls            24112800                       # Number of function calls committed.
system.cpu0.commit.int_insts               1209815485                       # Number of committed integer instructions.
system.cpu0.commit.loads                    388696875                       # Number of loads committed
system.cpu0.commit.membars                    2104061                       # Number of memory barriers committed
system.cpu0.commit.op_class_0::No_OpClass      2104067      0.17%      0.17% # Class of committed instruction
system.cpu0.commit.op_class_0::IntAlu       699528742     55.89%     56.06% # Class of committed instruction
system.cpu0.commit.op_class_0::IntMult       11833132      0.95%     57.01% # Class of committed instruction
system.cpu0.commit.op_class_0::IntDiv         2099835      0.17%     57.17% # Class of committed instruction
system.cpu0.commit.op_class_0::FloatAdd             0      0.00%     57.17% # Class of committed instruction
system.cpu0.commit.op_class_0::FloatCmp             4      0.00%     57.17% # Class of committed instruction
system.cpu0.commit.op_class_0::FloatCvt            12      0.00%     57.17% # Class of committed instruction
system.cpu0.commit.op_class_0::FloatMult            0      0.00%     57.17% # Class of committed instruction
system.cpu0.commit.op_class_0::FloatMultAcc            0      0.00%     57.17% # Class of committed instruction
system.cpu0.commit.op_class_0::FloatDiv             2      0.00%     57.17% # Class of committed instruction
system.cpu0.commit.op_class_0::FloatMisc            4      0.00%     57.17% # Class of committed instruction
system.cpu0.commit.op_class_0::FloatSqrt            0      0.00%     57.17% # Class of committed instruction
system.cpu0.commit.op_class_0::SimdAdd              0      0.00%     57.17% # Class of committed instruction
system.cpu0.commit.op_class_0::SimdAddAcc            0      0.00%     57.17% # Class of committed instruction
system.cpu0.commit.op_class_0::SimdAlu              0      0.00%     57.17% # Class of committed instruction
system.cpu0.commit.op_class_0::SimdCmp              0      0.00%     57.17% # Class of committed instruction
system.cpu0.commit.op_class_0::SimdCvt              0      0.00%     57.17% # Class of committed instruction
system.cpu0.commit.op_class_0::SimdMisc             0      0.00%     57.17% # Class of committed instruction
system.cpu0.commit.op_class_0::SimdMult             0      0.00%     57.17% # Class of committed instruction
system.cpu0.commit.op_class_0::SimdMultAcc            0      0.00%     57.17% # Class of committed instruction
system.cpu0.commit.op_class_0::SimdShift            0      0.00%     57.17% # Class of committed instruction
system.cpu0.commit.op_class_0::SimdShiftAcc            0      0.00%     57.17% # Class of committed instruction
system.cpu0.commit.op_class_0::SimdDiv              0      0.00%     57.17% # Class of committed instruction
system.cpu0.commit.op_class_0::SimdSqrt             0      0.00%     57.17% # Class of committed instruction
system.cpu0.commit.op_class_0::SimdFloatAdd            0      0.00%     57.17% # Class of committed instruction
system.cpu0.commit.op_class_0::SimdFloatAlu            0      0.00%     57.17% # Class of committed instruction
system.cpu0.commit.op_class_0::SimdFloatCmp            0      0.00%     57.17% # Class of committed instruction
system.cpu0.commit.op_class_0::SimdFloatCvt            0      0.00%     57.17% # Class of committed instruction
system.cpu0.commit.op_class_0::SimdFloatDiv            0      0.00%     57.17% # Class of committed instruction
system.cpu0.commit.op_class_0::SimdFloatMisc            0      0.00%     57.17% # Class of committed instruction
system.cpu0.commit.op_class_0::SimdFloatMult            0      0.00%     57.17% # Class of committed instruction
system.cpu0.commit.op_class_0::SimdFloatMultAcc            0      0.00%     57.17% # Class of committed instruction
system.cpu0.commit.op_class_0::SimdFloatSqrt            0      0.00%     57.17% # Class of committed instruction
system.cpu0.commit.op_class_0::SimdReduceAdd            0      0.00%     57.17% # Class of committed instruction
system.cpu0.commit.op_class_0::SimdReduceAlu            0      0.00%     57.17% # Class of committed instruction
system.cpu0.commit.op_class_0::SimdReduceCmp            0      0.00%     57.17% # Class of committed instruction
system.cpu0.commit.op_class_0::SimdFloatReduceAdd            0      0.00%     57.17% # Class of committed instruction
system.cpu0.commit.op_class_0::SimdFloatReduceCmp            0      0.00%     57.17% # Class of committed instruction
system.cpu0.commit.op_class_0::SimdAes              0      0.00%     57.17% # Class of committed instruction
system.cpu0.commit.op_class_0::SimdAesMix            0      0.00%     57.17% # Class of committed instruction
system.cpu0.commit.op_class_0::SimdSha1Hash            0      0.00%     57.17% # Class of committed instruction
system.cpu0.commit.op_class_0::SimdSha1Hash2            0      0.00%     57.17% # Class of committed instruction
system.cpu0.commit.op_class_0::SimdSha256Hash            0      0.00%     57.17% # Class of committed instruction
system.cpu0.commit.op_class_0::SimdSha256Hash2            0      0.00%     57.17% # Class of committed instruction
system.cpu0.commit.op_class_0::SimdShaSigma2            0      0.00%     57.17% # Class of committed instruction
system.cpu0.commit.op_class_0::SimdShaSigma3            0      0.00%     57.17% # Class of committed instruction
system.cpu0.commit.op_class_0::SimdPredAlu            0      0.00%     57.17% # Class of committed instruction
system.cpu0.commit.op_class_0::MemRead      389747326     31.14%     88.31% # Class of committed instruction
system.cpu0.commit.op_class_0::MemWrite     146255968     11.69%    100.00% # Class of committed instruction
system.cpu0.commit.op_class_0::FloatMemRead            8      0.00%    100.00% # Class of committed instruction
system.cpu0.commit.op_class_0::FloatMemWrite           20      0.00%    100.00% # Class of committed instruction
system.cpu0.commit.op_class_0::IprAccess            0      0.00%    100.00% # Class of committed instruction
system.cpu0.commit.op_class_0::InstPrefetch            0      0.00%    100.00% # Class of committed instruction
system.cpu0.commit.op_class_0::total       1251569120                       # Class of committed instruction
system.cpu0.commit.refs                     536003322                       # Number of memory references committed
system.cpu0.commit.swp_count                        0                       # Number of s/w prefetches committed
system.cpu0.commit.vec_insts                        0                       # Number of committed Vector instructions.
system.cpu0.committedInsts                 1250515376                       # Number of Instructions Simulated
system.cpu0.committedOps                   1251569120                       # Number of Ops (including micro ops) Simulated
system.cpu0.cpi                              1.692931                       # CPI: Cycles Per Instruction
system.cpu0.cpi_total                        1.692931                       # CPI: Total CPI of All Threads
system.cpu0.decode.BlockedCycles            309158567                       # Number of cycles decode is blocked
system.cpu0.decode.BranchMispred              5825708                       # Number of times decode detected a branch misprediction
system.cpu0.decode.BranchResolved           166729485                       # Number of times decode resolved a branch
system.cpu0.decode.DecodedInsts            1317204044                       # Number of instructions handled by decode
system.cpu0.decode.IdleCycles               739425085                       # Number of cycles decode is idle
system.cpu0.decode.RunCycles                910365795                       # Number of cycles decode is running
system.cpu0.decode.SquashCycles               9120293                       # Number of cycles decode is squashing
system.cpu0.decode.SquashedInsts             13710361                       # Number of squashed instructions handled by decode
system.cpu0.decode.UnblockCycles              4068197                       # Number of cycles decode is unblocking
system.cpu0.dtb.accesses                            0                       # DTB accesses
system.cpu0.dtb.hits                                0                       # DTB hits
system.cpu0.dtb.misses                              0                       # DTB misses
system.cpu0.dtb.read_accesses                       0                       # DTB read accesses
system.cpu0.dtb.read_hits                           0                       # DTB read hits
system.cpu0.dtb.read_misses                         0                       # DTB read misses
system.cpu0.dtb.write_accesses                      0                       # DTB write accesses
system.cpu0.dtb.write_hits                          0                       # DTB write hits
system.cpu0.dtb.write_misses                        0                       # DTB write misses
system.cpu0.fetch.Branches                  329126666                       # Number of branches that fetch encountered
system.cpu0.fetch.CacheLines                232819958                       # Number of cache lines fetched
system.cpu0.fetch.Cycles                   1231521404                       # Number of cycles fetch has run and was not squashing or blocked
system.cpu0.fetch.IcacheSquashes              5747923                       # Number of outstanding Icache misses that were squashed
system.cpu0.fetch.IcacheWaitRetryStallCycles          102                       # Number of stall cycles due to full MSHR
system.cpu0.fetch.Insts                    1341109010                       # Number of instructions fetch has processed
system.cpu0.fetch.MiscStallCycles                  33                       # Number of cycles fetch has spent waiting on interrupts, or bad addresses, or out of MSHRs
system.cpu0.fetch.PendingTrapStallCycles          151                       # Number of stall cycles due to pending traps
system.cpu0.fetch.SquashCycles               29847546                       # Number of cycles fetch has spent squashing
system.cpu0.fetch.branchRate                 0.155466                       # Number of branch fetches per cycle
system.cpu0.fetch.icacheStallCycles         725692474                       # Number of cycles fetch is stalled on an Icache miss
system.cpu0.fetch.predictedBranches         190058202                       # Number of branches that fetch has predicted taken
system.cpu0.fetch.rate                       0.633484                       # Number of inst fetches per cycle
system.cpu0.fetch.rateDist::samples        1972137937                       # Number of instructions fetched each cycle (Total)
system.cpu0.fetch.rateDist::mean             0.680562                       # Number of instructions fetched each cycle (Total)
system.cpu0.fetch.rateDist::stdev            0.910846                       # Number of instructions fetched each cycle (Total)
system.cpu0.fetch.rateDist::underflows              0      0.00%      0.00% # Number of instructions fetched each cycle (Total)
system.cpu0.fetch.rateDist::0              1024797738     51.96%     51.96% # Number of instructions fetched each cycle (Total)
system.cpu0.fetch.rateDist::1               704251426     35.71%     87.67% # Number of instructions fetched each cycle (Total)
system.cpu0.fetch.rateDist::2               124198849      6.30%     93.97% # Number of instructions fetched each cycle (Total)
system.cpu0.fetch.rateDist::3                97459195      4.94%     98.91% # Number of instructions fetched each cycle (Total)
system.cpu0.fetch.rateDist::4                16601212      0.84%     99.76% # Number of instructions fetched each cycle (Total)
system.cpu0.fetch.rateDist::5                 2455666      0.12%     99.88% # Number of instructions fetched each cycle (Total)
system.cpu0.fetch.rateDist::6                  268571      0.01%     99.89% # Number of instructions fetched each cycle (Total)
system.cpu0.fetch.rateDist::7                     445      0.00%     99.89% # Number of instructions fetched each cycle (Total)
system.cpu0.fetch.rateDist::8                 2104835      0.11%    100.00% # Number of instructions fetched each cycle (Total)
system.cpu0.fetch.rateDist::overflows               0      0.00%    100.00% # Number of instructions fetched each cycle (Total)
system.cpu0.fetch.rateDist::min_value               0                       # Number of instructions fetched each cycle (Total)
system.cpu0.fetch.rateDist::max_value               8                       # Number of instructions fetched each cycle (Total)
system.cpu0.fetch.rateDist::total          1972137937                       # Number of instructions fetched each cycle (Total)
system.cpu0.fp_regfile_reads                       44                       # number of floating regfile reads
system.cpu0.fp_regfile_writes                      24                       # number of floating regfile writes
system.cpu0.idleCycles                      144897799                       # Total number of cycles that the CPU has spent unscheduled due to idling
system.cpu0.iew.branchMispredicts             9184861                       # Number of branch mispredicts detected at execute
system.cpu0.iew.exec_branches               319300708                       # Number of branches executed
system.cpu0.iew.exec_nop                            0                       # number of nop insts executed
system.cpu0.iew.exec_rate                    0.610765                       # Inst execution rate
system.cpu0.iew.exec_refs                   562637263                       # number of memory reference insts executed
system.cpu0.iew.exec_stores                 151698904                       # Number of stores executed
system.cpu0.iew.exec_swp                            0                       # number of swp insts executed
system.cpu0.iew.iewBlockCycles              219530195                       # Number of cycles IEW is blocking
system.cpu0.iew.iewDispLoadInsts            408717446                       # Number of dispatched load instructions
system.cpu0.iew.iewDispNonSpecInsts           1056764                       # Number of dispatched non-speculative instructions
system.cpu0.iew.iewDispSquashedInsts          5250414                       # Number of squashed instructions skipped by dispatch
system.cpu0.iew.iewDispStoreInsts           152324602                       # Number of dispatched store instructions
system.cpu0.iew.iewDispatchedInsts         1298253677                       # Number of instructions dispatched to IQ
system.cpu0.iew.iewExecLoadInsts            410938359                       # Number of load instructions executed
system.cpu0.iew.iewExecSquashedInsts          4969206                       # Number of squashed instructions skipped in execute
system.cpu0.iew.iewExecutedInsts           1293011148                       # Number of executed instructions
system.cpu0.iew.iewIQFullEvents               1060719                       # Number of times the IQ has become full, causing a stall
system.cpu0.iew.iewIdleCycles                       0                       # Number of cycles IEW is idle
system.cpu0.iew.iewLSQFullEvents              8580019                       # Number of times the LSQ has become full, causing a stall
system.cpu0.iew.iewSquashCycles               9120293                       # Number of cycles IEW is squashing
system.cpu0.iew.iewUnblockCycles             10899309                       # Number of cycles IEW is unblocking
system.cpu0.iew.lsq.thread0.blockedLoads            0                       # Number of blocked loads due to partial load-store forwarding
system.cpu0.iew.lsq.thread0.cacheBlocked       212776                       # Number of times an access to memory failed due to the cache being blocked
system.cpu0.iew.lsq.thread0.forwLoads        22345175                       # Number of loads that had data forwarded from stores
system.cpu0.iew.lsq.thread0.ignoredResponses        76477                       # Number of memory responses ignored because the instruction is squashed
system.cpu0.iew.lsq.thread0.invAddrLoads            0                       # Number of loads ignored due to an invalid address
system.cpu0.iew.lsq.thread0.invAddrSwpfs            0                       # Number of software prefetches ignored due to an invalid address
system.cpu0.iew.lsq.thread0.memOrderViolation         7478                       # Number of memory ordering violations
system.cpu0.iew.lsq.thread0.rescheduledLoads      4925925                       # Number of loads that were rescheduled
system.cpu0.iew.lsq.thread0.squashedLoads     20020571                       # Number of loads squashed
system.cpu0.iew.lsq.thread0.squashedStores      5018154                       # Number of stores squashed
system.cpu0.iew.memOrderViolationEvents          7478                       # Number of memory order violations
system.cpu0.iew.predictedNotTakenIncorrect       400553                       # Number of branches that were predicted not taken incorrectly
system.cpu0.iew.predictedTakenIncorrect       8784308                       # Number of branches that were predicted taken incorrectly
system.cpu0.iew.wb_consumers                594697126                       # num instructions consuming a value
system.cpu0.iew.wb_count                   1284205917                       # cumulative count of insts written-back
system.cpu0.iew.wb_fanout                    0.838547                       # average fanout of values written-back
system.cpu0.iew.wb_producers                498681640                       # num instructions producing a value
system.cpu0.iew.wb_rate                      0.606606                       # insts written-back per cycle
system.cpu0.iew.wb_sent                    1284336479                       # cumulative count of insts sent to commit
system.cpu0.int_regfile_reads              1586761690                       # number of integer regfile reads
system.cpu0.int_regfile_writes              823500580                       # number of integer regfile writes
system.cpu0.ipc                              0.590692                       # IPC: Instructions Per Cycle
system.cpu0.ipc_total                        0.590692                       # IPC: Total IPC of All Threads
system.cpu0.iq.FU_type_0::No_OpClass          2106121      0.16%      0.16% # Type of FU issued
system.cpu0.iq.FU_type_0::IntAlu            717324378     55.26%     55.43% # Type of FU issued
system.cpu0.iq.FU_type_0::IntMult            11842372      0.91%     56.34% # Type of FU issued
system.cpu0.iq.FU_type_0::IntDiv              2100414      0.16%     56.50% # Type of FU issued
system.cpu0.iq.FU_type_0::FloatAdd                  0      0.00%     56.50% # Type of FU issued
system.cpu0.iq.FU_type_0::FloatCmp                  4      0.00%     56.50% # Type of FU issued
system.cpu0.iq.FU_type_0::FloatCvt                 12      0.00%     56.50% # Type of FU issued
system.cpu0.iq.FU_type_0::FloatMult                 0      0.00%     56.50% # Type of FU issued
system.cpu0.iq.FU_type_0::FloatMultAcc              0      0.00%     56.50% # Type of FU issued
system.cpu0.iq.FU_type_0::FloatDiv                  2      0.00%     56.50% # Type of FU issued
system.cpu0.iq.FU_type_0::FloatMisc                 4      0.00%     56.50% # Type of FU issued
system.cpu0.iq.FU_type_0::FloatSqrt                 0      0.00%     56.50% # Type of FU issued
system.cpu0.iq.FU_type_0::SimdAdd                   0      0.00%     56.50% # Type of FU issued
system.cpu0.iq.FU_type_0::SimdAddAcc                0      0.00%     56.50% # Type of FU issued
system.cpu0.iq.FU_type_0::SimdAlu                   0      0.00%     56.50% # Type of FU issued
system.cpu0.iq.FU_type_0::SimdCmp                   0      0.00%     56.50% # Type of FU issued
system.cpu0.iq.FU_type_0::SimdCvt                   0      0.00%     56.50% # Type of FU issued
system.cpu0.iq.FU_type_0::SimdMisc                  0      0.00%     56.50% # Type of FU issued
system.cpu0.iq.FU_type_0::SimdMult                  0      0.00%     56.50% # Type of FU issued
system.cpu0.iq.FU_type_0::SimdMultAcc               0      0.00%     56.50% # Type of FU issued
system.cpu0.iq.FU_type_0::SimdShift                 0      0.00%     56.50% # Type of FU issued
system.cpu0.iq.FU_type_0::SimdShiftAcc              0      0.00%     56.50% # Type of FU issued
system.cpu0.iq.FU_type_0::SimdDiv                   0      0.00%     56.50% # Type of FU issued
system.cpu0.iq.FU_type_0::SimdSqrt                  0      0.00%     56.50% # Type of FU issued
system.cpu0.iq.FU_type_0::SimdFloatAdd              0      0.00%     56.50% # Type of FU issued
system.cpu0.iq.FU_type_0::SimdFloatAlu              0      0.00%     56.50% # Type of FU issued
system.cpu0.iq.FU_type_0::SimdFloatCmp              0      0.00%     56.50% # Type of FU issued
system.cpu0.iq.FU_type_0::SimdFloatCvt              0      0.00%     56.50% # Type of FU issued
system.cpu0.iq.FU_type_0::SimdFloatDiv              0      0.00%     56.50% # Type of FU issued
system.cpu0.iq.FU_type_0::SimdFloatMisc             0      0.00%     56.50% # Type of FU issued
system.cpu0.iq.FU_type_0::SimdFloatMult             0      0.00%     56.50% # Type of FU issued
system.cpu0.iq.FU_type_0::SimdFloatMultAcc            0      0.00%     56.50% # Type of FU issued
system.cpu0.iq.FU_type_0::SimdFloatSqrt             0      0.00%     56.50% # Type of FU issued
system.cpu0.iq.FU_type_0::SimdReduceAdd             0      0.00%     56.50% # Type of FU issued
system.cpu0.iq.FU_type_0::SimdReduceAlu             0      0.00%     56.50% # Type of FU issued
system.cpu0.iq.FU_type_0::SimdReduceCmp             0      0.00%     56.50% # Type of FU issued
system.cpu0.iq.FU_type_0::SimdFloatReduceAdd            0      0.00%     56.50% # Type of FU issued
system.cpu0.iq.FU_type_0::SimdFloatReduceCmp            0      0.00%     56.50% # Type of FU issued
system.cpu0.iq.FU_type_0::SimdAes                   0      0.00%     56.50% # Type of FU issued
system.cpu0.iq.FU_type_0::SimdAesMix                0      0.00%     56.50% # Type of FU issued
system.cpu0.iq.FU_type_0::SimdSha1Hash              0      0.00%     56.50% # Type of FU issued
system.cpu0.iq.FU_type_0::SimdSha1Hash2             0      0.00%     56.50% # Type of FU issued
system.cpu0.iq.FU_type_0::SimdSha256Hash            0      0.00%     56.50% # Type of FU issued
system.cpu0.iq.FU_type_0::SimdSha256Hash2            0      0.00%     56.50% # Type of FU issued
system.cpu0.iq.FU_type_0::SimdShaSigma2             0      0.00%     56.50% # Type of FU issued
system.cpu0.iq.FU_type_0::SimdShaSigma3             0      0.00%     56.50% # Type of FU issued
system.cpu0.iq.FU_type_0::SimdPredAlu               0      0.00%     56.50% # Type of FU issued
system.cpu0.iq.FU_type_0::MemRead           413788280     31.88%     88.38% # Type of FU issued
system.cpu0.iq.FU_type_0::MemWrite          150818737     11.62%    100.00% # Type of FU issued
system.cpu0.iq.FU_type_0::FloatMemRead             10      0.00%    100.00% # Type of FU issued
system.cpu0.iq.FU_type_0::FloatMemWrite            20      0.00%    100.00% # Type of FU issued
system.cpu0.iq.FU_type_0::IprAccess                 0      0.00%    100.00% # Type of FU issued
system.cpu0.iq.FU_type_0::InstPrefetch              0      0.00%    100.00% # Type of FU issued
system.cpu0.iq.FU_type_0::total            1297980354                       # Type of FU issued
system.cpu0.iq.fp_alu_accesses                     56                       # Number of floating point alu accesses
system.cpu0.iq.fp_inst_queue_reads                108                       # Number of floating instruction queue reads
system.cpu0.iq.fp_inst_queue_wakeup_accesses           52                       # Number of floating instruction queue wakeup accesses
system.cpu0.iq.fp_inst_queue_writes                54                       # Number of floating instruction queue writes
system.cpu0.iq.fu_busy_cnt                    1907206                       # FU busy when requested
system.cpu0.iq.fu_busy_rate                  0.001469                       # FU busy rate (busy events/executed inst)
system.cpu0.iq.fu_full::No_OpClass                  0      0.00%      0.00% # attempts to use FU when none available
system.cpu0.iq.fu_full::IntAlu                 352140     18.46%     18.46% # attempts to use FU when none available
system.cpu0.iq.fu_full::IntMult                    31      0.00%     18.47% # attempts to use FU when none available
system.cpu0.iq.fu_full::IntDiv                      0      0.00%     18.47% # attempts to use FU when none available
system.cpu0.iq.fu_full::FloatAdd                    0      0.00%     18.47% # attempts to use FU when none available
system.cpu0.iq.fu_full::FloatCmp                    0      0.00%     18.47% # attempts to use FU when none available
system.cpu0.iq.fu_full::FloatCvt                    0      0.00%     18.47% # attempts to use FU when none available
system.cpu0.iq.fu_full::FloatMult                   0      0.00%     18.47% # attempts to use FU when none available
system.cpu0.iq.fu_full::FloatMultAcc                0      0.00%     18.47% # attempts to use FU when none available
system.cpu0.iq.fu_full::FloatDiv                    0      0.00%     18.47% # attempts to use FU when none available
system.cpu0.iq.fu_full::FloatMisc                   0      0.00%     18.47% # attempts to use FU when none available
system.cpu0.iq.fu_full::FloatSqrt                   0      0.00%     18.47% # attempts to use FU when none available
system.cpu0.iq.fu_full::SimdAdd                     0      0.00%     18.47% # attempts to use FU when none available
system.cpu0.iq.fu_full::SimdAddAcc                  0      0.00%     18.47% # attempts to use FU when none available
system.cpu0.iq.fu_full::SimdAlu                     0      0.00%     18.47% # attempts to use FU when none available
system.cpu0.iq.fu_full::SimdCmp                     0      0.00%     18.47% # attempts to use FU when none available
system.cpu0.iq.fu_full::SimdCvt                     0      0.00%     18.47% # attempts to use FU when none available
system.cpu0.iq.fu_full::SimdMisc                    0      0.00%     18.47% # attempts to use FU when none available
system.cpu0.iq.fu_full::SimdMult                    0      0.00%     18.47% # attempts to use FU when none available
system.cpu0.iq.fu_full::SimdMultAcc                 0      0.00%     18.47% # attempts to use FU when none available
system.cpu0.iq.fu_full::SimdShift                   0      0.00%     18.47% # attempts to use FU when none available
system.cpu0.iq.fu_full::SimdShiftAcc                0      0.00%     18.47% # attempts to use FU when none available
system.cpu0.iq.fu_full::SimdDiv                     0      0.00%     18.47% # attempts to use FU when none available
system.cpu0.iq.fu_full::SimdSqrt                    0      0.00%     18.47% # attempts to use FU when none available
system.cpu0.iq.fu_full::SimdFloatAdd                0      0.00%     18.47% # attempts to use FU when none available
system.cpu0.iq.fu_full::SimdFloatAlu                0      0.00%     18.47% # attempts to use FU when none available
system.cpu0.iq.fu_full::SimdFloatCmp                0      0.00%     18.47% # attempts to use FU when none available
system.cpu0.iq.fu_full::SimdFloatCvt                0      0.00%     18.47% # attempts to use FU when none available
system.cpu0.iq.fu_full::SimdFloatDiv                0      0.00%     18.47% # attempts to use FU when none available
system.cpu0.iq.fu_full::SimdFloatMisc               0      0.00%     18.47% # attempts to use FU when none available
system.cpu0.iq.fu_full::SimdFloatMult               0      0.00%     18.47% # attempts to use FU when none available
system.cpu0.iq.fu_full::SimdFloatMultAcc            0      0.00%     18.47% # attempts to use FU when none available
system.cpu0.iq.fu_full::SimdFloatSqrt               0      0.00%     18.47% # attempts to use FU when none available
system.cpu0.iq.fu_full::SimdReduceAdd               0      0.00%     18.47% # attempts to use FU when none available
system.cpu0.iq.fu_full::SimdReduceAlu               0      0.00%     18.47% # attempts to use FU when none available
system.cpu0.iq.fu_full::SimdReduceCmp               0      0.00%     18.47% # attempts to use FU when none available
system.cpu0.iq.fu_full::SimdFloatReduceAdd            0      0.00%     18.47% # attempts to use FU when none available
system.cpu0.iq.fu_full::SimdFloatReduceCmp            0      0.00%     18.47% # attempts to use FU when none available
system.cpu0.iq.fu_full::SimdAes                     0      0.00%     18.47% # attempts to use FU when none available
system.cpu0.iq.fu_full::SimdAesMix                  0      0.00%     18.47% # attempts to use FU when none available
system.cpu0.iq.fu_full::SimdSha1Hash                0      0.00%     18.47% # attempts to use FU when none available
system.cpu0.iq.fu_full::SimdSha1Hash2               0      0.00%     18.47% # attempts to use FU when none available
system.cpu0.iq.fu_full::SimdSha256Hash              0      0.00%     18.47% # attempts to use FU when none available
system.cpu0.iq.fu_full::SimdSha256Hash2             0      0.00%     18.47% # attempts to use FU when none available
system.cpu0.iq.fu_full::SimdShaSigma2               0      0.00%     18.47% # attempts to use FU when none available
system.cpu0.iq.fu_full::SimdShaSigma3               0      0.00%     18.47% # attempts to use FU when none available
system.cpu0.iq.fu_full::SimdPredAlu                 0      0.00%     18.47% # attempts to use FU when none available
system.cpu0.iq.fu_full::MemRead               1144476     60.01%     78.47% # attempts to use FU when none available
system.cpu0.iq.fu_full::MemWrite               410555     21.53%    100.00% # attempts to use FU when none available
system.cpu0.iq.fu_full::FloatMemRead                0      0.00%    100.00% # attempts to use FU when none available
system.cpu0.iq.fu_full::FloatMemWrite               4      0.00%    100.00% # attempts to use FU when none available
system.cpu0.iq.fu_full::IprAccess                   0      0.00%    100.00% # attempts to use FU when none available
system.cpu0.iq.fu_full::InstPrefetch                0      0.00%    100.00% # attempts to use FU when none available
system.cpu0.iq.int_alu_accesses            1297781383                       # Number of integer alu accesses
system.cpu0.iq.int_inst_queue_reads        4570134264                       # Number of integer instruction queue reads
system.cpu0.iq.int_inst_queue_wakeup_accesses   1284205865                       # Number of integer instruction queue wakeup accesses
system.cpu0.iq.int_inst_queue_writes       1344945401                       # Number of integer instruction queue writes
system.cpu0.iq.iqInstsAdded                1295092679                       # Number of instructions added to the IQ (excludes non-spec)
system.cpu0.iq.iqInstsIssued               1297980354                       # Number of instructions issued
system.cpu0.iq.iqNonSpecInstsAdded            3160998                       # Number of non-speculative instructions added to the IQ
system.cpu0.iq.iqSquashedInstsExamined       46684550                       # Number of squashed instructions iterated over during squash; mainly for profiling
system.cpu0.iq.iqSquashedInstsIssued           128521                       # Number of squashed instructions issued
system.cpu0.iq.iqSquashedNonSpecRemoved           384                       # Number of squashed non-spec instructions that were removed
system.cpu0.iq.iqSquashedOperandsExamined     13867726                       # Number of squashed operands that are examined and possibly removed from graph
system.cpu0.iq.issued_per_cycle::samples   1972137937                       # Number of insts issued each cycle
system.cpu0.iq.issued_per_cycle::mean        0.658159                       # Number of insts issued each cycle
system.cpu0.iq.issued_per_cycle::stdev       0.870200                       # Number of insts issued each cycle
system.cpu0.iq.issued_per_cycle::underflows            0      0.00%      0.00% # Number of insts issued each cycle
system.cpu0.iq.issued_per_cycle::0         1071666902     54.34%     54.34% # Number of insts issued each cycle
system.cpu0.iq.issued_per_cycle::1          605727789     30.71%     85.05% # Number of insts issued each cycle
system.cpu0.iq.issued_per_cycle::2          208485974     10.57%     95.63% # Number of insts issued each cycle
system.cpu0.iq.issued_per_cycle::3           74745155      3.79%     99.42% # Number of insts issued each cycle
system.cpu0.iq.issued_per_cycle::4            8739768      0.44%     99.86% # Number of insts issued each cycle
system.cpu0.iq.issued_per_cycle::5            1195354      0.06%     99.92% # Number of insts issued each cycle
system.cpu0.iq.issued_per_cycle::6            1124362      0.06%     99.98% # Number of insts issued each cycle
system.cpu0.iq.issued_per_cycle::7             257926      0.01%     99.99% # Number of insts issued each cycle
system.cpu0.iq.issued_per_cycle::8             194707      0.01%    100.00% # Number of insts issued each cycle
system.cpu0.iq.issued_per_cycle::overflows            0      0.00%    100.00% # Number of insts issued each cycle
system.cpu0.iq.issued_per_cycle::min_value            0                       # Number of insts issued each cycle
system.cpu0.iq.issued_per_cycle::max_value            8                       # Number of insts issued each cycle
system.cpu0.iq.issued_per_cycle::total     1972137937                       # Number of insts issued each cycle
system.cpu0.iq.rate                          0.613112                       # Inst issue rate
system.cpu0.iq.vec_alu_accesses                     0                       # Number of vector alu accesses
system.cpu0.iq.vec_inst_queue_reads                 0                       # Number of vector instruction queue reads
system.cpu0.iq.vec_inst_queue_wakeup_accesses            0                       # Number of vector instruction queue wakeup accesses
system.cpu0.iq.vec_inst_queue_writes                0                       # Number of vector instruction queue writes
system.cpu0.itb.accesses                            0                       # DTB accesses
system.cpu0.itb.hits                                0                       # DTB hits
system.cpu0.itb.misses                              0                       # DTB misses
system.cpu0.itb.read_accesses                       0                       # DTB read accesses
system.cpu0.itb.read_hits                           0                       # DTB read hits
system.cpu0.itb.read_misses                         0                       # DTB read misses
system.cpu0.itb.write_accesses                      0                       # DTB write accesses
system.cpu0.itb.write_hits                          0                       # DTB write hits
system.cpu0.itb.write_misses                        0                       # DTB write misses
system.cpu0.memDep0.conflictingLoads         12355717                       # Number of conflicting loads.
system.cpu0.memDep0.conflictingStores         2980013                       # Number of conflicting stores.
system.cpu0.memDep0.insertedLoads           408717446                       # Number of loads inserted to the mem dependence unit.
system.cpu0.memDep0.insertedStores          152324602                       # Number of stores inserted to the mem dependence unit.
system.cpu0.misc_regfile_reads                   2062                       # number of misc regfile reads
system.cpu0.misc_regfile_writes                    22                       # number of misc regfile writes
system.cpu0.numCycles                      2117035736                       # number of cpu cycles simulated
system.cpu0.numWorkItemsCompleted                   0                       # number of work items this cpu completed
system.cpu0.numWorkItemsStarted                     0                       # number of work items this cpu started
system.cpu0.quiesceCycles                     9951163                       # Total number of cycles that CPU has spent quiesced or waiting for an interrupt
system.cpu0.rename.BlockCycles              238664126                       # Number of cycles rename is blocking
system.cpu0.rename.CommittedMaps            800541752                       # Number of HB maps that are committed
system.cpu0.rename.IQFullEvents               7567787                       # Number of times rename has blocked due to IQ full
system.cpu0.rename.IdleCycles               750384978                       # Number of cycles rename is idle
system.cpu0.rename.LQFullEvents              25738328                       # Number of times rename has blocked due to LQ full
system.cpu0.rename.ROBFullEvents                15136                       # Number of times rename has blocked due to ROB full
system.cpu0.rename.RenameLookups           1610591886                       # Number of register rename lookups that rename has made
system.cpu0.rename.RenamedInsts            1312478397                       # Number of instructions processed by rename
system.cpu0.rename.RenamedOperands          846898428                       # Number of destination operands rename has renamed
system.cpu0.rename.RunCycles                902700867                       # Number of cycles rename is running
system.cpu0.rename.SQFullEvents              37521670                       # Number of times rename has blocked due to SQ full
system.cpu0.rename.SquashCycles               9120293                       # Number of cycles rename is squashing
system.cpu0.rename.UnblockCycles             71097602                       # Number of cycles rename is unblocking
system.cpu0.rename.UndoneMaps                46356667                       # Number of HB maps that are undone due to squashing
system.cpu0.rename.fp_rename_lookups               44                       # Number of floating rename lookups
system.cpu0.rename.int_rename_lookups      1610591842                       # Number of integer rename lookups
system.cpu0.rename.serializeStallCycles        170071                       # count of cycles rename stalled for serializing inst
system.cpu0.rename.serializingInsts              6222                       # count of serializing insts renamed
system.cpu0.rename.skidInsts                 17987388                       # count of insts added to the skid buffer
system.cpu0.rename.tempSerializingInsts          6200                       # count of temporary serializing insts renamed
system.cpu0.rob.rob_reads                  3223233998                       # The number of ROB reads
system.cpu0.rob.rob_writes                 2609784401                       # The number of ROB writes
system.cpu0.timesIdled                       22362037                       # Number of times that the entire CPU went into an idle state and unscheduled itself
system.cpu0.workload.numSyscalls                 2029                       # Number of system calls
system.cpu1.branchPred.BTBCorrect                   0                       # Number of correct BTB predictions (this stat may not work properly.
system.cpu1.branchPred.BTBHitPct            90.472833                       # BTB Hit Percentage
system.cpu1.branchPred.BTBHits               15123151                       # Number of BTB hits
system.cpu1.branchPred.BTBLookups            16715682                       # Number of BTB lookups
system.cpu1.branchPred.RASInCorrect                 0                       # Number of incorrect RAS predictions.
system.cpu1.branchPred.condIncorrect          2832732                       # Number of conditional branches incorrect
system.cpu1.branchPred.condPredicted         22094320                       # Number of conditional branches predicted
system.cpu1.branchPred.indirectHits            668994                       # Number of indirect target hits.
system.cpu1.branchPred.indirectLookups         683574                       # Number of indirect predictor lookups.
system.cpu1.branchPred.indirectMisses           14580                       # Number of indirect misses.
system.cpu1.branchPred.lookups               25890140                       # Number of BP lookups
system.cpu1.branchPred.usedRAS                      0                       # Number of times the RAS was used to get a target.
system.cpu1.branchPredindirectMispredicted        41956                       # Number of mispredicted indirect branches.
system.cpu1.commit.amos                       1050204                       # Number of atomic instructions committed
system.cpu1.commit.branchMispredicts          1842825                       # The number of times a branch was mispredicted
system.cpu1.commit.branches                  16228425                       # Number of branches committed
system.cpu1.commit.bw_lim_events              2039195                       # number cycles where commit BW limit reached
system.cpu1.commit.commitNonSpecStalls        3151355                       # The number of times commit has been forced to stall to communicate backwards
system.cpu1.commit.commitSquashedInsts       27958784                       # The number of squashed insts skipped by commit
system.cpu1.commit.committedInsts            67677231                       # Number of instructions committed
system.cpu1.commit.committedOps              68727646                       # Number of ops (including micro ops) committed
system.cpu1.commit.committed_per_cycle::samples    302429280                       # Number of insts commited each cycle
system.cpu1.commit.committed_per_cycle::mean     0.227252                       # Number of insts commited each cycle
system.cpu1.commit.committed_per_cycle::stdev     0.945503                       # Number of insts commited each cycle
system.cpu1.commit.committed_per_cycle::underflows            0      0.00%      0.00% # Number of insts commited each cycle
system.cpu1.commit.committed_per_cycle::0    273770691     90.52%     90.52% # Number of insts commited each cycle
system.cpu1.commit.committed_per_cycle::1     14403602      4.76%     95.29% # Number of insts commited each cycle
system.cpu1.commit.committed_per_cycle::2      5191726      1.72%     97.00% # Number of insts commited each cycle
system.cpu1.commit.committed_per_cycle::3      4039523      1.34%     98.34% # Number of insts commited each cycle
system.cpu1.commit.committed_per_cycle::4      1118212      0.37%     98.71% # Number of insts commited each cycle
system.cpu1.commit.committed_per_cycle::5       489797      0.16%     98.87% # Number of insts commited each cycle
system.cpu1.commit.committed_per_cycle::6      1049108      0.35%     99.22% # Number of insts commited each cycle
system.cpu1.commit.committed_per_cycle::7       327426      0.11%     99.33% # Number of insts commited each cycle
system.cpu1.commit.committed_per_cycle::8      2039195      0.67%    100.00% # Number of insts commited each cycle
system.cpu1.commit.committed_per_cycle::overflows            0      0.00%    100.00% # Number of insts commited each cycle
system.cpu1.commit.committed_per_cycle::min_value            0                       # Number of insts commited each cycle
system.cpu1.commit.committed_per_cycle::max_value            8                       # Number of insts commited each cycle
system.cpu1.commit.committed_per_cycle::total    302429280                       # Number of insts commited each cycle
system.cpu1.commit.fp_insts                        12                       # Number of committed floating point instructions.
system.cpu1.commit.function_calls             1074752                       # Number of function calls committed.
system.cpu1.commit.int_insts                 65712207                       # Number of committed integer instructions.
system.cpu1.commit.loads                     16751682                       # Number of loads committed
system.cpu1.commit.membars                    2100504                       # Number of memory barriers committed
system.cpu1.commit.op_class_0::No_OpClass      2100504      3.06%      3.06% # Class of committed instruction
system.cpu1.commit.op_class_0::IntAlu        43600506     63.44%     66.50% # Class of committed instruction
system.cpu1.commit.op_class_0::IntMult             44      0.00%     66.50% # Class of committed instruction
system.cpu1.commit.op_class_0::IntDiv              88      0.00%     66.50% # Class of committed instruction
system.cpu1.commit.op_class_0::FloatAdd             0      0.00%     66.50% # Class of committed instruction
system.cpu1.commit.op_class_0::FloatCmp             0      0.00%     66.50% # Class of committed instruction
system.cpu1.commit.op_class_0::FloatCvt             0      0.00%     66.50% # Class of committed instruction
system.cpu1.commit.op_class_0::FloatMult            0      0.00%     66.50% # Class of committed instruction
system.cpu1.commit.op_class_0::FloatMultAcc            0      0.00%     66.50% # Class of committed instruction
system.cpu1.commit.op_class_0::FloatDiv             0      0.00%     66.50% # Class of committed instruction
system.cpu1.commit.op_class_0::FloatMisc            0      0.00%     66.50% # Class of committed instruction
system.cpu1.commit.op_class_0::FloatSqrt            0      0.00%     66.50% # Class of committed instruction
system.cpu1.commit.op_class_0::SimdAdd              0      0.00%     66.50% # Class of committed instruction
system.cpu1.commit.op_class_0::SimdAddAcc            0      0.00%     66.50% # Class of committed instruction
system.cpu1.commit.op_class_0::SimdAlu              0      0.00%     66.50% # Class of committed instruction
system.cpu1.commit.op_class_0::SimdCmp              0      0.00%     66.50% # Class of committed instruction
system.cpu1.commit.op_class_0::SimdCvt              0      0.00%     66.50% # Class of committed instruction
system.cpu1.commit.op_class_0::SimdMisc             0      0.00%     66.50% # Class of committed instruction
system.cpu1.commit.op_class_0::SimdMult             0      0.00%     66.50% # Class of committed instruction
system.cpu1.commit.op_class_0::SimdMultAcc            0      0.00%     66.50% # Class of committed instruction
system.cpu1.commit.op_class_0::SimdShift            0      0.00%     66.50% # Class of committed instruction
system.cpu1.commit.op_class_0::SimdShiftAcc            0      0.00%     66.50% # Class of committed instruction
system.cpu1.commit.op_class_0::SimdDiv              0      0.00%     66.50% # Class of committed instruction
system.cpu1.commit.op_class_0::SimdSqrt             0      0.00%     66.50% # Class of committed instruction
system.cpu1.commit.op_class_0::SimdFloatAdd            0      0.00%     66.50% # Class of committed instruction
system.cpu1.commit.op_class_0::SimdFloatAlu            0      0.00%     66.50% # Class of committed instruction
system.cpu1.commit.op_class_0::SimdFloatCmp            0      0.00%     66.50% # Class of committed instruction
system.cpu1.commit.op_class_0::SimdFloatCvt            0      0.00%     66.50% # Class of committed instruction
system.cpu1.commit.op_class_0::SimdFloatDiv            0      0.00%     66.50% # Class of committed instruction
system.cpu1.commit.op_class_0::SimdFloatMisc            0      0.00%     66.50% # Class of committed instruction
system.cpu1.commit.op_class_0::SimdFloatMult            0      0.00%     66.50% # Class of committed instruction
system.cpu1.commit.op_class_0::SimdFloatMultAcc            0      0.00%     66.50% # Class of committed instruction
system.cpu1.commit.op_class_0::SimdFloatSqrt            0      0.00%     66.50% # Class of committed instruction
system.cpu1.commit.op_class_0::SimdReduceAdd            0      0.00%     66.50% # Class of committed instruction
system.cpu1.commit.op_class_0::SimdReduceAlu            0      0.00%     66.50% # Class of committed instruction
system.cpu1.commit.op_class_0::SimdReduceCmp            0      0.00%     66.50% # Class of committed instruction
system.cpu1.commit.op_class_0::SimdFloatReduceAdd            0      0.00%     66.50% # Class of committed instruction
system.cpu1.commit.op_class_0::SimdFloatReduceCmp            0      0.00%     66.50% # Class of committed instruction
system.cpu1.commit.op_class_0::SimdAes              0      0.00%     66.50% # Class of committed instruction
system.cpu1.commit.op_class_0::SimdAesMix            0      0.00%     66.50% # Class of committed instruction
system.cpu1.commit.op_class_0::SimdSha1Hash            0      0.00%     66.50% # Class of committed instruction
system.cpu1.commit.op_class_0::SimdSha1Hash2            0      0.00%     66.50% # Class of committed instruction
system.cpu1.commit.op_class_0::SimdSha256Hash            0      0.00%     66.50% # Class of committed instruction
system.cpu1.commit.op_class_0::SimdSha256Hash2            0      0.00%     66.50% # Class of committed instruction
system.cpu1.commit.op_class_0::SimdShaSigma2            0      0.00%     66.50% # Class of committed instruction
system.cpu1.commit.op_class_0::SimdShaSigma3            0      0.00%     66.50% # Class of committed instruction
system.cpu1.commit.op_class_0::SimdPredAlu            0      0.00%     66.50% # Class of committed instruction
system.cpu1.commit.op_class_0::MemRead       17801886     25.90%     92.40% # Class of committed instruction
system.cpu1.commit.op_class_0::MemWrite       5224606      7.60%    100.00% # Class of committed instruction
system.cpu1.commit.op_class_0::FloatMemRead            0      0.00%    100.00% # Class of committed instruction
system.cpu1.commit.op_class_0::FloatMemWrite           12      0.00%    100.00% # Class of committed instruction
system.cpu1.commit.op_class_0::IprAccess            0      0.00%    100.00% # Class of committed instruction
system.cpu1.commit.op_class_0::InstPrefetch            0      0.00%    100.00% # Class of committed instruction
system.cpu1.commit.op_class_0::total         68727646                       # Class of committed instruction
system.cpu1.commit.refs                      23026504                       # Number of memory references committed
system.cpu1.commit.swp_count                        0                       # Number of s/w prefetches committed
system.cpu1.commit.vec_insts                        0                       # Number of committed Vector instructions.
system.cpu1.committedInsts                   67677231                       # Number of Instructions Simulated
system.cpu1.committedOps                     68727646                       # Number of Ops (including micro ops) Simulated
system.cpu1.cpi                              4.553510                       # CPI: Cycles Per Instruction
system.cpu1.cpi_total                        4.553510                       # CPI: Total CPI of All Threads
system.cpu1.decode.BlockedCycles            231412744                       # Number of cycles decode is blocked
system.cpu1.decode.BranchMispred              1018879                       # Number of times decode detected a branch misprediction
system.cpu1.decode.BranchResolved            13519851                       # Number of times decode resolved a branch
system.cpu1.decode.DecodedInsts             103699635                       # Number of instructions handled by decode
system.cpu1.decode.IdleCycles                21067068                       # Number of cycles decode is idle
system.cpu1.decode.RunCycles                 50005809                       # Number of cycles decode is running
system.cpu1.decode.SquashCycles               1844228                       # Number of cycles decode is squashing
system.cpu1.decode.SquashedInsts              1561294                       # Number of squashed instructions handled by decode
system.cpu1.decode.UnblockCycles              2944580                       # Number of cycles decode is unblocking
system.cpu1.dtb.accesses                            0                       # DTB accesses
system.cpu1.dtb.hits                                0                       # DTB hits
system.cpu1.dtb.misses                              0                       # DTB misses
system.cpu1.dtb.read_accesses                       0                       # DTB read accesses
system.cpu1.dtb.read_hits                           0                       # DTB read hits
system.cpu1.dtb.read_misses                         0                       # DTB read misses
system.cpu1.dtb.write_accesses                      0                       # DTB write accesses
system.cpu1.dtb.write_hits                          0                       # DTB write hits
system.cpu1.dtb.write_misses                        0                       # DTB write misses
system.cpu1.fetch.Branches                   25890140                       # Number of branches that fetch encountered
system.cpu1.fetch.CacheLines                 19066915                       # Number of cache lines fetched
system.cpu1.fetch.Cycles                    282686236                       # Number of cycles fetch has run and was not squashing or blocked
system.cpu1.fetch.IcacheSquashes               391489                       # Number of outstanding Icache misses that were squashed
system.cpu1.fetch.IcacheWaitRetryStallCycles           17                       # Number of stall cycles due to full MSHR
system.cpu1.fetch.Insts                     114999331                       # Number of instructions fetch has processed
system.cpu1.fetch.MiscStallCycles                   3                       # Number of cycles fetch has spent waiting on interrupts, or bad addresses, or out of MSHRs
system.cpu1.fetch.SquashCycles                5668270                       # Number of cycles fetch has spent squashing
system.cpu1.fetch.branchRate                 0.084013                       # Number of branch fetches per cycle
system.cpu1.fetch.icacheStallCycles          21754038                       # Number of cycles fetch is stalled on an Icache miss
system.cpu1.fetch.predictedBranches          15792145                       # Number of branches that fetch has predicted taken
system.cpu1.fetch.rate                       0.373170                       # Number of inst fetches per cycle
system.cpu1.fetch.rateDist::samples         307274429                       # Number of instructions fetched each cycle (Total)
system.cpu1.fetch.rateDist::mean             0.383460                       # Number of instructions fetched each cycle (Total)
system.cpu1.fetch.rateDist::stdev            0.845329                       # Number of instructions fetched each cycle (Total)
system.cpu1.fetch.rateDist::underflows              0      0.00%      0.00% # Number of instructions fetched each cycle (Total)
system.cpu1.fetch.rateDist::0               234251058     76.24%     76.24% # Number of instructions fetched each cycle (Total)
system.cpu1.fetch.rateDist::1                46152361     15.02%     91.26% # Number of instructions fetched each cycle (Total)
system.cpu1.fetch.rateDist::2                15548285      5.06%     96.32% # Number of instructions fetched each cycle (Total)
system.cpu1.fetch.rateDist::3                 7796469      2.54%     98.85% # Number of instructions fetched each cycle (Total)
system.cpu1.fetch.rateDist::4                 1471352      0.48%     99.33% # Number of instructions fetched each cycle (Total)
system.cpu1.fetch.rateDist::5                 1027221      0.33%     99.67% # Number of instructions fetched each cycle (Total)
system.cpu1.fetch.rateDist::6                 1026888      0.33%    100.00% # Number of instructions fetched each cycle (Total)
system.cpu1.fetch.rateDist::7                       8      0.00%    100.00% # Number of instructions fetched each cycle (Total)
system.cpu1.fetch.rateDist::8                     787      0.00%    100.00% # Number of instructions fetched each cycle (Total)
system.cpu1.fetch.rateDist::overflows               0      0.00%    100.00% # Number of instructions fetched each cycle (Total)
system.cpu1.fetch.rateDist::min_value               0                       # Number of instructions fetched each cycle (Total)
system.cpu1.fetch.rateDist::max_value               8                       # Number of instructions fetched each cycle (Total)
system.cpu1.fetch.rateDist::total           307274429                       # Number of instructions fetched each cycle (Total)
system.cpu1.fp_regfile_reads                       12                       # number of floating regfile reads
system.cpu1.idleCycles                         894490                       # Total number of cycles that the CPU has spent unscheduled due to idling
system.cpu1.iew.branchMispredicts             1907637                       # Number of branch mispredicts detected at execute
system.cpu1.iew.exec_branches                19360315                       # Number of branches executed
system.cpu1.iew.exec_nop                            0                       # number of nop insts executed
system.cpu1.iew.exec_rate                    0.256805                       # Inst execution rate
system.cpu1.iew.exec_refs                    25962694                       # number of memory reference insts executed
system.cpu1.iew.exec_stores                   6633017                       # Number of stores executed
system.cpu1.iew.exec_swp                            0                       # number of swp insts executed
system.cpu1.iew.iewBlockCycles              190889932                       # Number of cycles IEW is blocking
system.cpu1.iew.iewDispLoadInsts             24828106                       # Number of dispatched load instructions
system.cpu1.iew.iewDispNonSpecInsts           2078718                       # Number of dispatched non-speculative instructions
system.cpu1.iew.iewDispSquashedInsts          1377311                       # Number of squashed instructions skipped by dispatch
system.cpu1.iew.iewDispStoreInsts             9039795                       # Number of dispatched store instructions
system.cpu1.iew.iewDispatchedInsts           96661476                       # Number of instructions dispatched to IQ
system.cpu1.iew.iewExecLoadInsts             19329677                       # Number of load instructions executed
system.cpu1.iew.iewExecSquashedInsts          1315495                       # Number of squashed instructions skipped in execute
system.cpu1.iew.iewExecutedInsts             79139236                       # Number of executed instructions
system.cpu1.iew.iewIQFullEvents               1017705                       # Number of times the IQ has become full, causing a stall
system.cpu1.iew.iewIdleCycles                       0                       # Number of cycles IEW is idle
system.cpu1.iew.iewLSQFullEvents              3920672                       # Number of times the LSQ has become full, causing a stall
system.cpu1.iew.iewSquashCycles               1844228                       # Number of cycles IEW is squashing
system.cpu1.iew.iewUnblockCycles              6170092                       # Number of cycles IEW is unblocking
system.cpu1.iew.lsq.thread0.blockedLoads            0                       # Number of blocked loads due to partial load-store forwarding
system.cpu1.iew.lsq.thread0.cacheBlocked        92872                       # Number of times an access to memory failed due to the cache being blocked
system.cpu1.iew.lsq.thread0.forwLoads          723900                       # Number of loads that had data forwarded from stores
system.cpu1.iew.lsq.thread0.ignoredResponses        32416                       # Number of memory responses ignored because the instruction is squashed
system.cpu1.iew.lsq.thread0.invAddrLoads            0                       # Number of loads ignored due to an invalid address
system.cpu1.iew.lsq.thread0.invAddrSwpfs            0                       # Number of software prefetches ignored due to an invalid address
system.cpu1.iew.lsq.thread0.memOrderViolation         2013                       # Number of memory ordering violations
system.cpu1.iew.lsq.thread0.rescheduledLoads        10879                       # Number of loads that were rescheduled
system.cpu1.iew.lsq.thread0.squashedLoads      8076424                       # Number of loads squashed
system.cpu1.iew.lsq.thread0.squashedStores      2764973                       # Number of stores squashed
system.cpu1.iew.memOrderViolationEvents          2013                       # Number of memory order violations
system.cpu1.iew.predictedNotTakenIncorrect       405401                       # Number of branches that were predicted not taken incorrectly
system.cpu1.iew.predictedTakenIncorrect       1502236                       # Number of branches that were predicted taken incorrectly
system.cpu1.iew.wb_consumers                 45598115                       # num instructions consuming a value
system.cpu1.iew.wb_count                     77972840                       # cumulative count of insts written-back
system.cpu1.iew.wb_fanout                    0.806842                       # average fanout of values written-back
system.cpu1.iew.wb_producers                 36790486                       # num instructions producing a value
system.cpu1.iew.wb_rate                      0.253020                       # insts written-back per cycle
system.cpu1.iew.wb_sent                      78024083                       # cumulative count of insts sent to commit
system.cpu1.int_regfile_reads               101018150                       # number of integer regfile reads
system.cpu1.int_regfile_writes               51602148                       # number of integer regfile writes
system.cpu1.ipc                              0.219611                       # IPC: Instructions Per Cycle
system.cpu1.ipc_total                        0.219611                       # IPC: Total IPC of All Threads
system.cpu1.iq.FU_type_0::No_OpClass          2100718      2.61%      2.61% # Type of FU issued
system.cpu1.iq.FU_type_0::IntAlu             51982240     64.61%     67.22% # Type of FU issued
system.cpu1.iq.FU_type_0::IntMult                  51      0.00%     67.22% # Type of FU issued
system.cpu1.iq.FU_type_0::IntDiv                   90      0.00%     67.22% # Type of FU issued
system.cpu1.iq.FU_type_0::FloatAdd                  0      0.00%     67.22% # Type of FU issued
system.cpu1.iq.FU_type_0::FloatCmp                  0      0.00%     67.22% # Type of FU issued
system.cpu1.iq.FU_type_0::FloatCvt                  0      0.00%     67.22% # Type of FU issued
system.cpu1.iq.FU_type_0::FloatMult                 0      0.00%     67.22% # Type of FU issued
system.cpu1.iq.FU_type_0::FloatMultAcc              0      0.00%     67.22% # Type of FU issued
system.cpu1.iq.FU_type_0::FloatDiv                  0      0.00%     67.22% # Type of FU issued
system.cpu1.iq.FU_type_0::FloatMisc                 0      0.00%     67.22% # Type of FU issued
system.cpu1.iq.FU_type_0::FloatSqrt                 0      0.00%     67.22% # Type of FU issued
system.cpu1.iq.FU_type_0::SimdAdd                   0      0.00%     67.22% # Type of FU issued
system.cpu1.iq.FU_type_0::SimdAddAcc                0      0.00%     67.22% # Type of FU issued
system.cpu1.iq.FU_type_0::SimdAlu                   0      0.00%     67.22% # Type of FU issued
system.cpu1.iq.FU_type_0::SimdCmp                   0      0.00%     67.22% # Type of FU issued
system.cpu1.iq.FU_type_0::SimdCvt                   0      0.00%     67.22% # Type of FU issued
system.cpu1.iq.FU_type_0::SimdMisc                  0      0.00%     67.22% # Type of FU issued
system.cpu1.iq.FU_type_0::SimdMult                  0      0.00%     67.22% # Type of FU issued
system.cpu1.iq.FU_type_0::SimdMultAcc               0      0.00%     67.22% # Type of FU issued
system.cpu1.iq.FU_type_0::SimdShift                 0      0.00%     67.22% # Type of FU issued
system.cpu1.iq.FU_type_0::SimdShiftAcc              0      0.00%     67.22% # Type of FU issued
system.cpu1.iq.FU_type_0::SimdDiv                   0      0.00%     67.22% # Type of FU issued
system.cpu1.iq.FU_type_0::SimdSqrt                  0      0.00%     67.22% # Type of FU issued
system.cpu1.iq.FU_type_0::SimdFloatAdd              0      0.00%     67.22% # Type of FU issued
system.cpu1.iq.FU_type_0::SimdFloatAlu              0      0.00%     67.22% # Type of FU issued
system.cpu1.iq.FU_type_0::SimdFloatCmp              0      0.00%     67.22% # Type of FU issued
system.cpu1.iq.FU_type_0::SimdFloatCvt              0      0.00%     67.22% # Type of FU issued
system.cpu1.iq.FU_type_0::SimdFloatDiv              0      0.00%     67.22% # Type of FU issued
system.cpu1.iq.FU_type_0::SimdFloatMisc             0      0.00%     67.22% # Type of FU issued
system.cpu1.iq.FU_type_0::SimdFloatMult             0      0.00%     67.22% # Type of FU issued
system.cpu1.iq.FU_type_0::SimdFloatMultAcc            0      0.00%     67.22% # Type of FU issued
system.cpu1.iq.FU_type_0::SimdFloatSqrt             0      0.00%     67.22% # Type of FU issued
system.cpu1.iq.FU_type_0::SimdReduceAdd             0      0.00%     67.22% # Type of FU issued
system.cpu1.iq.FU_type_0::SimdReduceAlu             0      0.00%     67.22% # Type of FU issued
system.cpu1.iq.FU_type_0::SimdReduceCmp             0      0.00%     67.22% # Type of FU issued
system.cpu1.iq.FU_type_0::SimdFloatReduceAdd            0      0.00%     67.22% # Type of FU issued
system.cpu1.iq.FU_type_0::SimdFloatReduceCmp            0      0.00%     67.22% # Type of FU issued
system.cpu1.iq.FU_type_0::SimdAes                   0      0.00%     67.22% # Type of FU issued
system.cpu1.iq.FU_type_0::SimdAesMix                0      0.00%     67.22% # Type of FU issued
system.cpu1.iq.FU_type_0::SimdSha1Hash              0      0.00%     67.22% # Type of FU issued
system.cpu1.iq.FU_type_0::SimdSha1Hash2             0      0.00%     67.22% # Type of FU issued
system.cpu1.iq.FU_type_0::SimdSha256Hash            0      0.00%     67.22% # Type of FU issued
system.cpu1.iq.FU_type_0::SimdSha256Hash2            0      0.00%     67.22% # Type of FU issued
system.cpu1.iq.FU_type_0::SimdShaSigma2             0      0.00%     67.22% # Type of FU issued
system.cpu1.iq.FU_type_0::SimdShaSigma3             0      0.00%     67.22% # Type of FU issued
system.cpu1.iq.FU_type_0::SimdPredAlu               0      0.00%     67.22% # Type of FU issued
system.cpu1.iq.FU_type_0::MemRead            20718481     25.75%     92.97% # Type of FU issued
system.cpu1.iq.FU_type_0::MemWrite            5653139      7.03%    100.00% # Type of FU issued
system.cpu1.iq.FU_type_0::FloatMemRead              0      0.00%    100.00% # Type of FU issued
system.cpu1.iq.FU_type_0::FloatMemWrite            12      0.00%    100.00% # Type of FU issued
system.cpu1.iq.FU_type_0::IprAccess                 0      0.00%    100.00% # Type of FU issued
system.cpu1.iq.FU_type_0::InstPrefetch              0      0.00%    100.00% # Type of FU issued
system.cpu1.iq.FU_type_0::total              80454731                       # Type of FU issued
system.cpu1.iq.fp_alu_accesses                     16                       # Number of floating point alu accesses
system.cpu1.iq.fp_inst_queue_reads                 28                       # Number of floating instruction queue reads
system.cpu1.iq.fp_inst_queue_wakeup_accesses           12                       # Number of floating instruction queue wakeup accesses
system.cpu1.iq.fp_inst_queue_writes                12                       # Number of floating instruction queue writes
system.cpu1.iq.fu_busy_cnt                    1569838                       # FU busy when requested
system.cpu1.iq.fu_busy_rate                  0.019512                       # FU busy rate (busy events/executed inst)
system.cpu1.iq.fu_full::No_OpClass                  0      0.00%      0.00% # attempts to use FU when none available
system.cpu1.iq.fu_full::IntAlu                 332407     21.17%     21.17% # attempts to use FU when none available
system.cpu1.iq.fu_full::IntMult                     0      0.00%     21.17% # attempts to use FU when none available
system.cpu1.iq.fu_full::IntDiv                      0      0.00%     21.17% # attempts to use FU when none available
system.cpu1.iq.fu_full::FloatAdd                    0      0.00%     21.17% # attempts to use FU when none available
system.cpu1.iq.fu_full::FloatCmp                    0      0.00%     21.17% # attempts to use FU when none available
system.cpu1.iq.fu_full::FloatCvt                    0      0.00%     21.17% # attempts to use FU when none available
system.cpu1.iq.fu_full::FloatMult                   0      0.00%     21.17% # attempts to use FU when none available
system.cpu1.iq.fu_full::FloatMultAcc                0      0.00%     21.17% # attempts to use FU when none available
system.cpu1.iq.fu_full::FloatDiv                    0      0.00%     21.17% # attempts to use FU when none available
system.cpu1.iq.fu_full::FloatMisc                   0      0.00%     21.17% # attempts to use FU when none available
system.cpu1.iq.fu_full::FloatSqrt                   0      0.00%     21.17% # attempts to use FU when none available
system.cpu1.iq.fu_full::SimdAdd                     0      0.00%     21.17% # attempts to use FU when none available
system.cpu1.iq.fu_full::SimdAddAcc                  0      0.00%     21.17% # attempts to use FU when none available
system.cpu1.iq.fu_full::SimdAlu                     0      0.00%     21.17% # attempts to use FU when none available
system.cpu1.iq.fu_full::SimdCmp                     0      0.00%     21.17% # attempts to use FU when none available
system.cpu1.iq.fu_full::SimdCvt                     0      0.00%     21.17% # attempts to use FU when none available
system.cpu1.iq.fu_full::SimdMisc                    0      0.00%     21.17% # attempts to use FU when none available
system.cpu1.iq.fu_full::SimdMult                    0      0.00%     21.17% # attempts to use FU when none available
system.cpu1.iq.fu_full::SimdMultAcc                 0      0.00%     21.17% # attempts to use FU when none available
system.cpu1.iq.fu_full::SimdShift                   0      0.00%     21.17% # attempts to use FU when none available
system.cpu1.iq.fu_full::SimdShiftAcc                0      0.00%     21.17% # attempts to use FU when none available
system.cpu1.iq.fu_full::SimdDiv                     0      0.00%     21.17% # attempts to use FU when none available
system.cpu1.iq.fu_full::SimdSqrt                    0      0.00%     21.17% # attempts to use FU when none available
system.cpu1.iq.fu_full::SimdFloatAdd                0      0.00%     21.17% # attempts to use FU when none available
system.cpu1.iq.fu_full::SimdFloatAlu                0      0.00%     21.17% # attempts to use FU when none available
system.cpu1.iq.fu_full::SimdFloatCmp                0      0.00%     21.17% # attempts to use FU when none available
system.cpu1.iq.fu_full::SimdFloatCvt                0      0.00%     21.17% # attempts to use FU when none available
system.cpu1.iq.fu_full::SimdFloatDiv                0      0.00%     21.17% # attempts to use FU when none available
system.cpu1.iq.fu_full::SimdFloatMisc               0      0.00%     21.17% # attempts to use FU when none available
system.cpu1.iq.fu_full::SimdFloatMult               0      0.00%     21.17% # attempts to use FU when none available
system.cpu1.iq.fu_full::SimdFloatMultAcc            0      0.00%     21.17% # attempts to use FU when none available
system.cpu1.iq.fu_full::SimdFloatSqrt               0      0.00%     21.17% # attempts to use FU when none available
system.cpu1.iq.fu_full::SimdReduceAdd               0      0.00%     21.17% # attempts to use FU when none available
system.cpu1.iq.fu_full::SimdReduceAlu               0      0.00%     21.17% # attempts to use FU when none available
system.cpu1.iq.fu_full::SimdReduceCmp               0      0.00%     21.17% # attempts to use FU when none available
system.cpu1.iq.fu_full::SimdFloatReduceAdd            0      0.00%     21.17% # attempts to use FU when none available
system.cpu1.iq.fu_full::SimdFloatReduceCmp            0      0.00%     21.17% # attempts to use FU when none available
system.cpu1.iq.fu_full::SimdAes                     0      0.00%     21.17% # attempts to use FU when none available
system.cpu1.iq.fu_full::SimdAesMix                  0      0.00%     21.17% # attempts to use FU when none available
system.cpu1.iq.fu_full::SimdSha1Hash                0      0.00%     21.17% # attempts to use FU when none available
system.cpu1.iq.fu_full::SimdSha1Hash2               0      0.00%     21.17% # attempts to use FU when none available
system.cpu1.iq.fu_full::SimdSha256Hash              0      0.00%     21.17% # attempts to use FU when none available
system.cpu1.iq.fu_full::SimdSha256Hash2             0      0.00%     21.17% # attempts to use FU when none available
system.cpu1.iq.fu_full::SimdShaSigma2               0      0.00%     21.17% # attempts to use FU when none available
system.cpu1.iq.fu_full::SimdShaSigma3               0      0.00%     21.17% # attempts to use FU when none available
system.cpu1.iq.fu_full::SimdPredAlu                 0      0.00%     21.17% # attempts to use FU when none available
system.cpu1.iq.fu_full::MemRead                975978     62.17%     83.35% # attempts to use FU when none available
[...]
system.cpu1.dcache.WriteReq_mshr_miss_rate::total     0.047056                       # mshr miss rate for WriteReq accesses
system.cpu1.dcache.WriteReq_avg_mshr_miss_latency::.cpu1.data 107921.268284                       # average WriteReq mshr miss latency
system.cpu1.dcache.WriteReq_avg_mshr_miss_latency::total 107921.268284                       # average WriteReq mshr miss latency
system.cpu1.dcache.LoadLockedReq_hits::.cpu1.data        17404                       # number of LoadLockedReq hits
system.cpu1.dcache.LoadLockedReq_hits::total        17404                       # number of LoadLockedReq hits
system.cpu1.dcache.LoadLockedReq_misses::.cpu1.data          702                       # number of LoadLockedReq misses
system.cpu1.dcache.LoadLockedReq_misses::total          702                       # number of LoadLockedReq misses
system.cpu1.dcache.LoadLockedReq_miss_latency::.cpu1.data     21770500                       # number of LoadLockedReq miss cycles
system.cpu1.dcache.LoadLockedReq_miss_latency::total     21770500                       # number of LoadLockedReq miss cycles
system.cpu1.dcache.LoadLockedReq_accesses::.cpu1.data        18106                       # number of LoadLockedReq accesses(hits+misses)
system.cpu1.dcache.LoadLockedReq_accesses::total        18106                       # number of LoadLockedReq accesses(hits+misses)
system.cpu1.dcache.LoadLockedReq_miss_rate::.cpu1.data     0.038772                       # miss rate for LoadLockedReq accesses
system.cpu1.dcache.LoadLockedReq_miss_rate::total     0.038772                       # miss rate for LoadLockedReq accesses
system.cpu1.dcache.LoadLockedReq_avg_miss_latency::.cpu1.data 31012.108262                       # average LoadLockedReq miss latency
system.cpu1.dcache.LoadLockedReq_avg_miss_latency::total 31012.108262                       # average LoadLockedReq miss latency
system.cpu1.dcache.LoadLockedReq_mshr_hits::.cpu1.data          149                       # number of LoadLockedReq MSHR hits
system.cpu1.dcache.LoadLockedReq_mshr_hits::total          149                       # number of LoadLockedReq MSHR hits
system.cpu1.dcache.LoadLockedReq_mshr_misses::.cpu1.data          553                       # number of LoadLockedReq MSHR misses
system.cpu1.dcache.LoadLockedReq_mshr_misses::total          553                       # number of LoadLockedReq MSHR misses
system.cpu1.dcache.LoadLockedReq_mshr_miss_latency::.cpu1.data     15853500                       # number of LoadLockedReq MSHR miss cycles
system.cpu1.dcache.LoadLockedReq_mshr_miss_latency::total     15853500                       # number of LoadLockedReq MSHR miss cycles
system.cpu1.dcache.LoadLockedReq_mshr_miss_rate::.cpu1.data     0.030542                       # mshr miss rate for LoadLockedReq accesses
system.cpu1.dcache.LoadLockedReq_mshr_miss_rate::total     0.030542                       # mshr miss rate for LoadLockedReq accesses
system.cpu1.dcache.LoadLockedReq_avg_mshr_miss_latency::.cpu1.data 28668.173599                       # average LoadLockedReq mshr miss latency
system.cpu1.dcache.LoadLockedReq_avg_mshr_miss_latency::total 28668.173599                       # average LoadLockedReq mshr miss latency
system.cpu1.dcache.StoreCondReq_hits::.cpu1.data        16553                       # number of StoreCondReq hits
system.cpu1.dcache.StoreCondReq_hits::total        16553                       # number of StoreCondReq hits
system.cpu1.dcache.StoreCondReq_misses::.cpu1.data          776                       # number of StoreCondReq misses
system.cpu1.dcache.StoreCondReq_misses::total          776                       # number of StoreCondReq misses
system.cpu1.dcache.StoreCondReq_miss_latency::.cpu1.data      6355000                       # number of StoreCondReq miss cycles
system.cpu1.dcache.StoreCondReq_miss_latency::total      6355000                       # number of StoreCondReq miss cycles
system.cpu1.dcache.StoreCondReq_accesses::.cpu1.data        17329                       # number of StoreCondReq accesses(hits+misses)
system.cpu1.dcache.StoreCondReq_accesses::total        17329                       # number of StoreCondReq accesses(hits+misses)
system.cpu1.dcache.StoreCondReq_miss_rate::.cpu1.data     0.044780                       # miss rate for StoreCondReq accesses
system.cpu1.dcache.StoreCondReq_miss_rate::total     0.044780                       # miss rate for StoreCondReq accesses
system.cpu1.dcache.StoreCondReq_avg_miss_latency::.cpu1.data  8189.432990                       # average StoreCondReq miss latency
system.cpu1.dcache.StoreCondReq_avg_miss_latency::total  8189.432990                       # average StoreCondReq miss latency
system.cpu1.dcache.StoreCondReq_mshr_misses::.cpu1.data          771                       # number of StoreCondReq MSHR misses
system.cpu1.dcache.StoreCondReq_mshr_misses::total          771                       # number of StoreCondReq MSHR misses
system.cpu1.dcache.StoreCondReq_mshr_miss_latency::.cpu1.data      5649000                       # number of StoreCondReq MSHR miss cycles
system.cpu1.dcache.StoreCondReq_mshr_miss_latency::total      5649000                       # number of StoreCondReq MSHR miss cycles
system.cpu1.dcache.StoreCondReq_mshr_miss_rate::.cpu1.data     0.044492                       # mshr miss rate for StoreCondReq accesses
system.cpu1.dcache.StoreCondReq_mshr_miss_rate::total     0.044492                       # mshr miss rate for StoreCondReq accesses
system.cpu1.dcache.StoreCondReq_avg_mshr_miss_latency::.cpu1.data  7326.848249                       # average StoreCondReq mshr miss latency
system.cpu1.dcache.StoreCondReq_avg_mshr_miss_latency::total  7326.848249                       # average StoreCondReq mshr miss latency
system.cpu1.dcache.StoreCondFailReq_miss_latency::.cpu1.data      1475500                       # number of StoreCondFailReq miss cycles
system.cpu1.dcache.StoreCondFailReq_miss_latency::total      1475500                       # number of StoreCondFailReq miss cycles
system.cpu1.dcache.StoreCondFailReq_avg_miss_latency::.cpu1.data          inf                       # average StoreCondFailReq miss latency
system.cpu1.dcache.StoreCondFailReq_avg_miss_latency::total          inf                       # average StoreCondFailReq miss latency
system.cpu1.dcache.StoreCondFailReq_mshr_miss_latency::.cpu1.data      1410500                       # number of StoreCondFailReq MSHR miss cycles
system.cpu1.dcache.StoreCondFailReq_mshr_miss_latency::total      1410500                       # number of StoreCondFailReq MSHR miss cycles
system.cpu1.dcache.StoreCondFailReq_avg_mshr_miss_latency::.cpu1.data          inf                       # average StoreCondFailReq mshr miss latency
system.cpu1.dcache.StoreCondFailReq_avg_mshr_miss_latency::total          inf                       # average StoreCondFailReq mshr miss latency
system.cpu1.dcache.SwapReq_hits::.cpu1.data          652                       # number of SwapReq hits
system.cpu1.dcache.SwapReq_hits::total            652                       # number of SwapReq hits
system.cpu1.dcache.SwapReq_misses::.cpu1.data         1312                       # number of SwapReq misses
system.cpu1.dcache.SwapReq_misses::total         1312                       # number of SwapReq misses
system.cpu1.dcache.SwapReq_miss_latency::.cpu1.data     13537000                       # number of SwapReq miss cycles
system.cpu1.dcache.SwapReq_miss_latency::total     13537000                       # number of SwapReq miss cycles
system.cpu1.dcache.SwapReq_accesses::.cpu1.data         1964                       # number of SwapReq accesses(hits+misses)
system.cpu1.dcache.SwapReq_accesses::total         1964                       # number of SwapReq accesses(hits+misses)
system.cpu1.dcache.SwapReq_miss_rate::.cpu1.data     0.668024                       # miss rate for SwapReq accesses
system.cpu1.dcache.SwapReq_miss_rate::total     0.668024                       # miss rate for SwapReq accesses
system.cpu1.dcache.SwapReq_avg_miss_latency::.cpu1.data 10317.835366                       # average SwapReq miss latency
system.cpu1.dcache.SwapReq_avg_miss_latency::total 10317.835366                       # average SwapReq miss latency
system.cpu1.dcache.SwapReq_mshr_misses::.cpu1.data         1312                       # number of SwapReq MSHR misses
system.cpu1.dcache.SwapReq_mshr_misses::total         1312                       # number of SwapReq MSHR misses
system.cpu1.dcache.SwapReq_mshr_miss_latency::.cpu1.data     12225000                       # number of SwapReq MSHR miss cycles
system.cpu1.dcache.SwapReq_mshr_miss_latency::total     12225000                       # number of SwapReq MSHR miss cycles
system.cpu1.dcache.SwapReq_mshr_miss_rate::.cpu1.data     0.668024                       # mshr miss rate for SwapReq accesses
system.cpu1.dcache.SwapReq_mshr_miss_rate::total     0.668024                       # mshr miss rate for SwapReq accesses
system.cpu1.dcache.SwapReq_avg_mshr_miss_latency::.cpu1.data  9317.835366                       # average SwapReq mshr miss latency
system.cpu1.dcache.SwapReq_avg_mshr_miss_latency::total  9317.835366                       # average SwapReq mshr miss latency
system.cpu1.dcache.tags.pwrStateResidencyTicks::UNDEFINED  45866504500                       # Cumulative time (in ticks) in various power states
system.cpu1.dcache.tags.tagsinuse           31.448890                       # Cycle average of tags in use
system.cpu1.dcache.tags.total_refs            7932671                       # Total number of references to valid blocks.
system.cpu1.dcache.tags.sampled_refs           498839                       # Sample count of references to valid blocks.
system.cpu1.dcache.tags.avg_refs            15.902267                       # Average number of references to valid blocks.
system.cpu1.dcache.tags.warmup_cycle                0                       # Cycle when the warmup percentage was hit.
system.cpu1.dcache.tags.occ_blocks::.cpu1.data    31.448890                       # Average occupied blocks per requestor
system.cpu1.dcache.tags.occ_percent::.cpu1.data     0.982778                       # Average percentage of cache occupancy
system.cpu1.dcache.tags.occ_percent::total     0.982778                       # Average percentage of cache occupancy
system.cpu1.dcache.tags.occ_task_id_blocks::1024           29                       # Occupied blocks per task id
system.cpu1.dcache.tags.age_task_id_blocks_1024::1           29                       # Occupied blocks per task id
system.cpu1.dcache.tags.occ_task_id_percent::1024     0.906250                       # Percentage of cache occupancy per task id
system.cpu1.dcache.tags.tag_accesses         25925350                       # Number of tag accesses
system.cpu1.dcache.tags.data_accesses        25925350                       # Number of data accesses
system.cpu_clk_domain.clock                       500                       # Clock period in ticks
system.tol2bus.pwrStateResidencyTicks::UNDEFINED  45866504500                       # Cumulative time (in ticks) in various power states
system.tol2bus.trans_dist::ReadResp           1687853                       # Transaction distribution
system.tol2bus.trans_dist::ReadRespWithInvalidate            5                       # Transaction distribution
system.tol2bus.trans_dist::WritebackDirty      1870182                       # Transaction distribution
system.tol2bus.trans_dist::WritebackClean      1216642                       # Transaction distribution
system.tol2bus.trans_dist::CleanEvict         3211461                       # Transaction distribution
system.tol2bus.trans_dist::HardPFReq           181020                       # Transaction distribution
system.tol2bus.trans_dist::HardPFResp               1                       # Transaction distribution
system.tol2bus.trans_dist::UpgradeReq            4952                       # Transaction distribution
system.tol2bus.trans_dist::SCUpgradeReq          3628                       # Transaction distribution
system.tol2bus.trans_dist::UpgradeResp           8580                       # Transaction distribution
system.tol2bus.trans_dist::SCUpgradeFailReq          190                       # Transaction distribution
system.tol2bus.trans_dist::UpgradeFailResp          190                       # Transaction distribution
system.tol2bus.trans_dist::ReadExReq           479262                       # Transaction distribution
system.tol2bus.trans_dist::ReadExResp          479262                       # Transaction distribution
system.tol2bus.trans_dist::ReadCleanReq        118815                       # Transaction distribution
system.tol2bus.trans_dist::ReadSharedReq      1569041                       # Transaction distribution
system.tol2bus.trans_dist::InvalidateReq         3164                       # Transaction distribution
system.tol2bus.trans_dist::InvalidateResp         3164                       # Transaction distribution
system.tol2bus.pkt_count_system.cpu0.icache.mem_side::system.l2.cpu_side       215911                       # Packet count per connected master and slave (bytes)
system.tol2bus.pkt_count_system.cpu0.dcache.mem_side::system.l2.cpu_side      1654675                       # Packet count per connected master and slave (bytes)
system.tol2bus.pkt_count_system.cpu1.icache.mem_side::system.l2.cpu_side        47442                       # Packet count per connected master and slave (bytes)
system.tol2bus.pkt_count_system.cpu1.dcache.mem_side::system.l2.cpu_side      1491083                       # Packet count per connected master and slave (bytes)
system.tol2bus.pkt_count_system.cpu2.icache.mem_side::system.l2.cpu_side        46803                       # Packet count per connected master and slave (bytes)
system.tol2bus.pkt_count_system.cpu2.dcache.mem_side::system.l2.cpu_side      1494753                       # Packet count per connected master and slave (bytes)
system.tol2bus.pkt_count_system.cpu3.icache.mem_side::system.l2.cpu_side        46293                       # Packet count per connected master and slave (bytes)
system.tol2bus.pkt_count_system.cpu3.dcache.mem_side::system.l2.cpu_side      1495528                       # Packet count per connected master and slave (bytes)
system.tol2bus.pkt_count::total               6492488                       # Packet count per connected master and slave (bytes)
system.tol2bus.pkt_size_system.cpu0.icache.mem_side::system.l2.cpu_side      9212288                       # Cumulative packet size per connected master and slave (bytes)
system.tol2bus.pkt_size_system.cpu0.dcache.mem_side::system.l2.cpu_side     70131776                       # Cumulative packet size per connected master and slave (bytes)
system.tol2bus.pkt_size_system.cpu1.icache.mem_side::system.l2.cpu_side      2024192                       # Cumulative packet size per connected master and slave (bytes)
system.tol2bus.pkt_size_system.cpu1.dcache.mem_side::system.l2.cpu_side     63350720                       # Cumulative packet size per connected master and slave (bytes)
system.tol2bus.pkt_size_system.cpu2.icache.mem_side::system.l2.cpu_side      1996928                       # Cumulative packet size per connected master and slave (bytes)
system.tol2bus.pkt_size_system.cpu2.dcache.mem_side::system.l2.cpu_side     63503360                       # Cumulative packet size per connected master and slave (bytes)
system.tol2bus.pkt_size_system.cpu3.icache.mem_side::system.l2.cpu_side      1975168                       # Cumulative packet size per connected master and slave (bytes)
system.tol2bus.pkt_size_system.cpu3.dcache.mem_side::system.l2.cpu_side     63533312                       # Cumulative packet size per connected master and slave (bytes)
system.tol2bus.pkt_size::total              275727744                       # Cumulative packet size per connected master and slave (bytes)
system.tol2bus.snoops                         4344925                       # Total snoops (count)
system.tol2bus.snoopTraffic                  60536960                       # Total snoop traffic (bytes)
system.tol2bus.snoop_fanout::samples          6504180                       # Request fanout histogram
system.tol2bus.snoop_fanout::mean            0.346877                       # Request fanout histogram
system.tol2bus.snoop_fanout::stdev           0.545863                       # Request fanout histogram
system.tol2bus.snoop_fanout::underflows             0      0.00%      0.00% # Request fanout histogram
system.tol2bus.snoop_fanout::0                4400216     67.65%     67.65% # Request fanout histogram
system.tol2bus.snoop_fanout::1                2017739     31.02%     98.67% # Request fanout histogram
system.tol2bus.snoop_fanout::2                  34361      0.53%     99.20% # Request fanout histogram
system.tol2bus.snoop_fanout::3                  37768      0.58%     99.78% # Request fanout histogram
system.tol2bus.snoop_fanout::4                  14096      0.22%    100.00% # Request fanout histogram
system.tol2bus.snoop_fanout::5                      0      0.00%    100.00% # Request fanout histogram
system.tol2bus.snoop_fanout::6                      0      0.00%    100.00% # Request fanout histogram
system.tol2bus.snoop_fanout::7                      0      0.00%    100.00% # Request fanout histogram
system.tol2bus.snoop_fanout::8                      0      0.00%    100.00% # Request fanout histogram
system.tol2bus.snoop_fanout::overflows              0      0.00%    100.00% # Request fanout histogram
system.tol2bus.snoop_fanout::min_value              0                       # Request fanout histogram
system.tol2bus.snoop_fanout::max_value              4                       # Request fanout histogram
system.tol2bus.snoop_fanout::total            6504180                       # Request fanout histogram
system.tol2bus.reqLayer0.occupancy         4324523308                       # Layer occupancy (ticks)
system.tol2bus.reqLayer0.utilization              9.4                       # Layer utilization (%)
system.tol2bus.respLayer5.occupancy         751465345                       # Layer occupancy (ticks)
system.tol2bus.respLayer5.utilization             1.6                       # Layer utilization (%)
system.tol2bus.respLayer4.occupancy          25142199                       # Layer occupancy (ticks)
system.tol2bus.respLayer4.utilization             0.1                       # Layer utilization (%)
system.tol2bus.respLayer7.occupancy         751853461                       # Layer occupancy (ticks)
system.tol2bus.respLayer7.utilization             1.6                       # Layer utilization (%)
system.tol2bus.respLayer6.occupancy          24934104                       # Layer occupancy (ticks)
system.tol2bus.respLayer6.utilization             0.1                       # Layer utilization (%)
system.tol2bus.respLayer1.occupancy         827209630                       # Layer occupancy (ticks)
system.tol2bus.respLayer1.utilization             1.8                       # Layer utilization (%)
system.tol2bus.respLayer0.occupancy         108204892                       # Layer occupancy (ticks)
system.tol2bus.respLayer0.utilization             0.2                       # Layer utilization (%)
system.tol2bus.respLayer3.occupancy         749613830                       # Layer occupancy (ticks)
system.tol2bus.respLayer3.utilization             1.6                       # Layer utilization (%)
system.tol2bus.respLayer2.occupancy          25616403                       # Layer occupancy (ticks)
system.tol2bus.respLayer2.utilization             0.1                       # Layer utilization (%)
system.tol2bus.snoopLayer0.occupancy             1501                       # Layer occupancy (ticks)
system.tol2bus.snoopLayer0.utilization            0.0                       # Layer utilization (%)

---------- End Simulation Statistics   ----------
