
---------- Begin Simulation Statistics ----------
final_tick                               2127671633000                       # Number of ticks from beginning of simulation (restored from checkpoints and never reset)
host_inst_rate                                  60586                       # Simulator instruction rate (inst/s)
host_mem_usage                                 707520                       # Number of bytes of host memory used
host_op_rate                                    60782                       # Simulator op (including micro ops) rate (op/s)
host_seconds                                 38865.90                       # Real time elapsed on the host
host_tick_rate                               54743921                       # Simulator tick rate (ticks/s)
sim_freq                                 1000000000000                       # Frequency of simulated ticks
sim_insts                                  2354736579                       # Number of instructions simulated
sim_ops                                    2362345492                       # Number of ops (including micro ops) simulated
sim_seconds                                  2.127672                       # Number of seconds simulated
sim_ticks                                2127671633000                       # Number of ticks simulated
system.cpu0.branchPred.BTBCorrect                   0                       # Number of correct BTB predictions (this stat may not work properly.
system.cpu0.branchPred.BTBHitPct            87.290387                       # BTB Hit Percentage
system.cpu0.branchPred.BTBHits              292043359                       # Number of BTB hits
system.cpu0.branchPred.BTBLookups           334565316                       # Number of BTB lookups
system.cpu0.branchPred.RASInCorrect                 0                       # Number of incorrect RAS predictions.
system.cpu0.branchPred.condIncorrect         19225771                       # Number of conditional branches incorrect
system.cpu0.branchPred.condPredicted        457173271                       # Number of conditional branches predicted
system.cpu0.branchPred.indirectHits          38753140                       # Number of indirect target hits.
system.cpu0.branchPred.indirectLookups       39129786                       # Number of indirect predictor lookups.
system.cpu0.branchPred.indirectMisses          376646                       # Number of indirect misses.
system.cpu0.branchPred.lookups              581579095                       # Number of BP lookups
system.cpu0.branchPred.usedRAS                      0                       # Number of times the RAS was used to get a target.
system.cpu0.branchPredindirectMispredicted      3963420                       # Number of mispredicted indirect branches.
system.cpu0.commit.amos                       3801864                       # Number of atomic instructions committed
system.cpu0.commit.branchMispredicts         13601924                       # The number of times a branch was mispredicted
system.cpu0.commit.branches                 555000569                       # Number of branches committed
system.cpu0.commit.bw_lim_events             60813922                       # number cycles where commit BW limit reached
system.cpu0.commit.commitNonSpecStalls       11419499                       # The number of times commit has been forced to stall to communicate backwards
system.cpu0.commit.commitSquashedInsts      101218354                       # The number of squashed insts skipped by commit
system.cpu0.commit.committedInsts          2224680975                       # Number of instructions committed
system.cpu0.commit.committedOps            2228488131                       # Number of ops (including micro ops) committed
system.cpu0.commit.committed_per_cycle::samples   3942730034                       # Number of insts commited each cycle
system.cpu0.commit.committed_per_cycle::mean     0.565214                       # Number of insts commited each cycle
system.cpu0.commit.committed_per_cycle::stdev     1.314743                       # Number of insts commited each cycle
system.cpu0.commit.committed_per_cycle::underflows            0      0.00%      0.00% # Number of insts commited each cycle
system.cpu0.commit.committed_per_cycle::0   2836072933     71.93%     71.93% # Number of insts commited each cycle
system.cpu0.commit.committed_per_cycle::1    683080116     17.33%     89.26% # Number of insts commited each cycle
system.cpu0.commit.committed_per_cycle::2    146239277      3.71%     92.97% # Number of insts commited each cycle
system.cpu0.commit.committed_per_cycle::3    147197739      3.73%     96.70% # Number of insts commited each cycle
system.cpu0.commit.committed_per_cycle::4     41201626      1.05%     97.74% # Number of insts commited each cycle
system.cpu0.commit.committed_per_cycle::5     15813886      0.40%     98.15% # Number of insts commited each cycle
system.cpu0.commit.committed_per_cycle::6      5224811      0.13%     98.28% # Number of insts commited each cycle
system.cpu0.commit.committed_per_cycle::7      7085724      0.18%     98.46% # Number of insts commited each cycle
system.cpu0.commit.committed_per_cycle::8     60813922      1.54%    100.00% # Number of insts commited each cycle
system.cpu0.commit.committed_per_cycle::overflows            0      0.00%    100.00% # Number of insts commited each cycle
system.cpu0.commit.committed_per_cycle::min_value            0                       # Number of insts commited each cycle
system.cpu0.commit.committed_per_cycle::max_value            8                       # Number of insts commited each cycle
system.cpu0.commit.committed_per_cycle::total   3942730034                       # Number of insts commited each cycle
system.cpu0.commit.fp_insts                        46                       # Number of committed floating point instructions.
system.cpu0.commit.function_calls            44160720                       # Number of function calls committed.
system.cpu0.commit.int_insts               2150792781                       # Number of committed integer instructions.
system.cpu0.commit.loads                    691528302                       # Number of loads committed
system.cpu0.commit.membars                    7608890                       # Number of memory barriers committed
system.cpu0.commit.op_class_0::No_OpClass      7608896      0.34%      0.34% # Class of committed instruction
system.cpu0.commit.op_class_0::IntAlu      1238698491     55.58%     55.93% # Class of committed instruction
system.cpu0.commit.op_class_0::IntMult       18316825      0.82%     56.75% # Class of committed instruction
system.cpu0.commit.op_class_0::IntDiv         3801411      0.17%     56.92% # Class of committed instruction
system.cpu0.commit.op_class_0::FloatAdd             0      0.00%     56.92% # Class of committed instruction
system.cpu0.commit.op_class_0::FloatCmp             4      0.00%     56.92% # Class of committed instruction
system.cpu0.commit.op_class_0::FloatCvt            12      0.00%     56.92% # Class of committed instruction
system.cpu0.commit.op_class_0::FloatMult            0      0.00%     56.92% # Class of committed instruction
system.cpu0.commit.op_class_0::FloatMultAcc            0      0.00%     56.92% # Class of committed instruction
system.cpu0.commit.op_class_0::FloatDiv             2      0.00%     56.92% # Class of committed instruction
system.cpu0.commit.op_class_0::FloatMisc            4      0.00%     56.92% # Class of committed instruction
system.cpu0.commit.op_class_0::FloatSqrt            0      0.00%     56.92% # Class of committed instruction
system.cpu0.commit.op_class_0::SimdAdd              0      0.00%     56.92% # Class of committed instruction
system.cpu0.commit.op_class_0::SimdAddAcc            0      0.00%     56.92% # Class of committed instruction
system.cpu0.commit.op_class_0::SimdAlu              0      0.00%     56.92% # Class of committed instruction
system.cpu0.commit.op_class_0::SimdCmp              0      0.00%     56.92% # Class of committed instruction
system.cpu0.commit.op_class_0::SimdCvt              0      0.00%     56.92% # Class of committed instruction
system.cpu0.commit.op_class_0::SimdMisc             0      0.00%     56.92% # Class of committed instruction
system.cpu0.commit.op_class_0::SimdMult             0      0.00%     56.92% # Class of committed instruction
system.cpu0.commit.op_class_0::SimdMultAcc            0      0.00%     56.92% # Class of committed instruction
system.cpu0.commit.op_class_0::SimdShift            0      0.00%     56.92% # Class of committed instruction
system.cpu0.commit.op_class_0::SimdShiftAcc            0      0.00%     56.92% # Class of committed instruction
system.cpu0.commit.op_class_0::SimdDiv              0      0.00%     56.92% # Class of committed instruction
system.cpu0.commit.op_class_0::SimdSqrt             0      0.00%     56.92% # Class of committed instruction
system.cpu0.commit.op_class_0::SimdFloatAdd            0      0.00%     56.92% # Class of committed instruction
system.cpu0.commit.op_class_0::SimdFloatAlu            0      0.00%     56.92% # Class of committed instruction
system.cpu0.commit.op_class_0::SimdFloatCmp            0      0.00%     56.92% # Class of committed instruction
system.cpu0.commit.op_class_0::SimdFloatCvt            0      0.00%     56.92% # Class of committed instruction
system.cpu0.commit.op_class_0::SimdFloatDiv            0      0.00%     56.92% # Class of committed instruction
system.cpu0.commit.op_class_0::SimdFloatMisc            0      0.00%     56.92% # Class of committed instruction
system.cpu0.commit.op_class_0::SimdFloatMult            0      0.00%     56.92% # Class of committed instruction
system.cpu0.commit.op_class_0::SimdFloatMultAcc            0      0.00%     56.92% # Class of committed instruction
system.cpu0.commit.op_class_0::SimdFloatSqrt            0      0.00%     56.92% # Class of committed instruction
system.cpu0.commit.op_class_0::SimdReduceAdd            0      0.00%     56.92% # Class of committed instruction
system.cpu0.commit.op_class_0::SimdReduceAlu            0      0.00%     56.92% # Class of committed instruction
system.cpu0.commit.op_class_0::SimdReduceCmp            0      0.00%     56.92% # Class of committed instruction
system.cpu0.commit.op_class_0::SimdFloatReduceAdd            0      0.00%     56.92% # Class of committed instruction
system.cpu0.commit.op_class_0::SimdFloatReduceCmp            0      0.00%     56.92% # Class of committed instruction
system.cpu0.commit.op_class_0::SimdAes              0      0.00%     56.92% # Class of committed instruction
system.cpu0.commit.op_class_0::SimdAesMix            0      0.00%     56.92% # Class of committed instruction
system.cpu0.commit.op_class_0::SimdSha1Hash            0      0.00%     56.92% # Class of committed instruction
system.cpu0.commit.op_class_0::SimdSha1Hash2            0      0.00%     56.92% # Class of committed instruction
system.cpu0.commit.op_class_0::SimdSha256Hash            0      0.00%     56.92% # Class of committed instruction
system.cpu0.commit.op_class_0::SimdSha256Hash2            0      0.00%     56.92% # Class of committed instruction
system.cpu0.commit.op_class_0::SimdShaSigma2            0      0.00%     56.92% # Class of committed instruction
system.cpu0.commit.op_class_0::SimdShaSigma3            0      0.00%     56.92% # Class of committed instruction
system.cpu0.commit.op_class_0::SimdPredAlu            0      0.00%     56.92% # Class of committed instruction
system.cpu0.commit.op_class_0::MemRead      695330158     31.20%     88.12% # Class of committed instruction
system.cpu0.commit.op_class_0::MemWrite     264732304     11.88%    100.00% # Class of committed instruction
system.cpu0.commit.op_class_0::FloatMemRead            8      0.00%    100.00% # Class of committed instruction
system.cpu0.commit.op_class_0::FloatMemWrite           16      0.00%    100.00% # Class of committed instruction
system.cpu0.commit.op_class_0::IprAccess            0      0.00%    100.00% # Class of committed instruction
system.cpu0.commit.op_class_0::InstPrefetch            0      0.00%    100.00% # Class of committed instruction
system.cpu0.commit.op_class_0::total       2228488131                       # Class of committed instruction
system.cpu0.commit.refs                     960062486                       # Number of memory references committed
system.cpu0.commit.swp_count                        0                       # Number of s/w prefetches committed
system.cpu0.commit.vec_insts                        0                       # Number of committed Vector instructions.
system.cpu0.committedInsts                 2224680975                       # Number of Instructions Simulated
system.cpu0.committedOps                   2228488131                       # Number of Ops (including micro ops) Simulated
system.cpu0.cpi                              1.910297                       # CPI: Cycles Per Instruction
system.cpu0.cpi_total                        1.910297                       # CPI: Total CPI of All Threads
system.cpu0.decode.BlockedCycles            627232043                       # Number of cycles decode is blocked
system.cpu0.decode.BranchMispred              5642307                       # Number of times decode detected a branch misprediction
system.cpu0.decode.BranchResolved           290680478                       # Number of times decode resolved a branch
system.cpu0.decode.DecodedInsts            2362022224                       # Number of instructions handled by decode
system.cpu0.decode.IdleCycles              1668128281                       # Number of cycles decode is idle
system.cpu0.decode.RunCycles               1645471079                       # Number of cycles decode is running
system.cpu0.decode.SquashCycles              13623663                       # Number of cycles decode is squashing
system.cpu0.decode.SquashedInsts             10582527                       # Number of squashed instructions handled by decode
system.cpu0.decode.UnblockCycles             10043975                       # Number of cycles decode is unblocking
system.cpu0.dtb.accesses                            0                       # DTB accesses
system.cpu0.dtb.hits                                0                       # DTB hits
system.cpu0.dtb.misses                              0                       # DTB misses
system.cpu0.dtb.read_accesses                       0                       # DTB read accesses
system.cpu0.dtb.read_hits                           0                       # DTB read hits
system.cpu0.dtb.read_misses                         0                       # DTB read misses
system.cpu0.dtb.write_accesses                      0                       # DTB write accesses
system.cpu0.dtb.write_hits                          0                       # DTB write hits
system.cpu0.dtb.write_misses                        0                       # DTB write misses
system.cpu0.fetch.Branches                  581579095                       # Number of branches that fetch encountered
system.cpu0.fetch.CacheLines                413506701                       # Number of cache lines fetched
system.cpu0.fetch.Cycles                   2289930590                       # Number of cycles fetch has run and was not squashing or blocked
system.cpu0.fetch.IcacheSquashes              8874940                       # Number of outstanding Icache misses that were squashed
system.cpu0.fetch.IcacheWaitRetryStallCycles          199                       # Number of stall cycles due to full MSHR
system.cpu0.fetch.Insts                    2382128170                       # Number of instructions fetch has processed
system.cpu0.fetch.MiscStallCycles                 105                       # Number of cycles fetch has spent waiting on interrupts, or bad addresses, or out of MSHRs
system.cpu0.fetch.PendingTrapStallCycles          533                       # Number of stall cycles due to pending traps
system.cpu0.fetch.SquashCycles               38495192                       # Number of cycles fetch has spent squashing
system.cpu0.fetch.branchRate                 0.136849                       # Number of branch fetches per cycle
system.cpu0.fetch.icacheStallCycles        1655320018                       # Number of cycles fetch is stalled on an Icache miss
system.cpu0.fetch.predictedBranches         330796499                       # Number of branches that fetch has predicted taken
system.cpu0.fetch.rate                       0.560527                       # Number of inst fetches per cycle
system.cpu0.fetch.rateDist::samples        3964499041                       # Number of instructions fetched each cycle (Total)
system.cpu0.fetch.rateDist::mean             0.601825                       # Number of instructions fetched each cycle (Total)
system.cpu0.fetch.rateDist::stdev            0.880783                       # Number of instructions fetched each cycle (Total)
system.cpu0.fetch.rateDist::underflows              0      0.00%      0.00% # Number of instructions fetched each cycle (Total)
system.cpu0.fetch.rateDist::0              2259623672     57.00%     57.00% # Number of instructions fetched each cycle (Total)
system.cpu0.fetch.rateDist::1              1265461293     31.92%     88.92% # Number of instructions fetched each cycle (Total)
system.cpu0.fetch.rateDist::2               266290188      6.72%     95.63% # Number of instructions fetched each cycle (Total)
system.cpu0.fetch.rateDist::3               141524168      3.57%     99.20% # Number of instructions fetched each cycle (Total)
system.cpu0.fetch.rateDist::4                14064630      0.35%     99.56% # Number of instructions fetched each cycle (Total)
system.cpu0.fetch.rateDist::5                 9572475      0.24%     99.80% # Number of instructions fetched each cycle (Total)
system.cpu0.fetch.rateDist::6                  345179      0.01%     99.81% # Number of instructions fetched each cycle (Total)
system.cpu0.fetch.rateDist::7                 3809144      0.10%     99.90% # Number of instructions fetched each cycle (Total)
system.cpu0.fetch.rateDist::8                 3808292      0.10%    100.00% # Number of instructions fetched each cycle (Total)
system.cpu0.fetch.rateDist::overflows               0      0.00%    100.00% # Number of instructions fetched each cycle (Total)
system.cpu0.fetch.rateDist::min_value               0                       # Number of instructions fetched each cycle (Total)
system.cpu0.fetch.rateDist::max_value               8                       # Number of instructions fetched each cycle (Total)
system.cpu0.fetch.rateDist::total          3964499041                       # Number of instructions fetched each cycle (Total)
system.cpu0.fp_regfile_reads                       40                       # number of floating regfile reads
system.cpu0.fp_regfile_writes                      24                       # number of floating regfile writes
system.cpu0.idleCycles                      285301828                       # Total number of cycles that the CPU has spent unscheduled due to idling
system.cpu0.iew.branchMispredicts            13782708                       # Number of branch mispredicts detected at execute
system.cpu0.iew.exec_branches               565784320                       # Number of branches executed
system.cpu0.iew.exec_nop                            0                       # number of nop insts executed
system.cpu0.iew.exec_rate                    0.544042                       # Inst execution rate
system.cpu0.iew.exec_refs                  1008240333                       # number of memory reference insts executed
system.cpu0.iew.exec_stores                 274466746                       # Number of stores executed
system.cpu0.iew.exec_swp                            0                       # number of swp insts executed
system.cpu0.iew.iewBlockCycles              529070748                       # Number of cycles IEW is blocking
system.cpu0.iew.iewDispLoadInsts            732437989                       # Number of dispatched load instructions
system.cpu0.iew.iewDispNonSpecInsts           3810992                       # Number of dispatched non-speculative instructions
system.cpu0.iew.iewDispSquashedInsts          4367977                       # Number of squashed instructions skipped by dispatch
system.cpu0.iew.iewDispStoreInsts           278930826                       # Number of dispatched store instructions
system.cpu0.iew.iewDispatchedInsts         2329672504                       # Number of instructions dispatched to IQ
system.cpu0.iew.iewExecLoadInsts            733773587                       # Number of load instructions executed
system.cpu0.iew.iewExecSquashedInsts         12709585                       # Number of squashed instructions skipped in execute
system.cpu0.iew.iewExecutedInsts           2312071973                       # Number of executed instructions
system.cpu0.iew.iewIQFullEvents               2826925                       # Number of times the IQ has become full, causing a stall
system.cpu0.iew.iewIdleCycles                       0                       # Number of cycles IEW is idle
system.cpu0.iew.iewLSQFullEvents              6999938                       # Number of times the LSQ has become full, causing a stall
system.cpu0.iew.iewSquashCycles              13623663                       # Number of cycles IEW is squashing
system.cpu0.iew.iewUnblockCycles             14375504                       # Number of cycles IEW is unblocking
system.cpu0.iew.lsq.thread0.blockedLoads            0                       # Number of blocked loads due to partial load-store forwarding
system.cpu0.iew.lsq.thread0.cacheBlocked       146465                       # Number of times an access to memory failed due to the cache being blocked
system.cpu0.iew.lsq.thread0.forwLoads        33456878                       # Number of loads that had data forwarded from stores
system.cpu0.iew.lsq.thread0.ignoredResponses        71994                       # Number of memory responses ignored because the instruction is squashed
system.cpu0.iew.lsq.thread0.invAddrLoads            0                       # Number of loads ignored due to an invalid address
system.cpu0.iew.lsq.thread0.invAddrSwpfs            0                       # Number of software prefetches ignored due to an invalid address
system.cpu0.iew.lsq.thread0.memOrderViolation        23969                       # Number of memory ordering violations
system.cpu0.iew.lsq.thread0.rescheduledLoads      8646264                       # Number of loads that were rescheduled
system.cpu0.iew.lsq.thread0.squashedLoads     40909687                       # Number of loads squashed
system.cpu0.iew.lsq.thread0.squashedStores     10396642                       # Number of stores squashed
system.cpu0.iew.memOrderViolationEvents         23969                       # Number of memory order violations
system.cpu0.iew.predictedNotTakenIncorrect      1957808                       # Number of branches that were predicted not taken incorrectly
system.cpu0.iew.predictedTakenIncorrect      11824900                       # Number of branches that were predicted taken incorrectly
system.cpu0.iew.wb_consumers                941472448                       # num instructions consuming a value
system.cpu0.iew.wb_count                   2292646108                       # cumulative count of insts written-back
system.cpu0.iew.wb_fanout                    0.897814                       # average fanout of values written-back
system.cpu0.iew.wb_producers                845266869                       # num instructions producing a value
system.cpu0.iew.wb_rate                      0.539471                       # insts written-back per cycle
system.cpu0.iew.wb_sent                    2292787876                       # cumulative count of insts sent to commit
system.cpu0.int_regfile_reads              2822602510                       # number of integer regfile reads
system.cpu0.int_regfile_writes             1469051214                       # number of integer regfile writes
system.cpu0.ipc                              0.523479                       # IPC: Instructions Per Cycle
system.cpu0.ipc_total                        0.523479                       # IPC: Total IPC of All Threads
system.cpu0.iq.FU_type_0::No_OpClass          7611934      0.33%      0.33% # Type of FU issued
system.cpu0.iq.FU_type_0::IntAlu           1279405768     55.03%     55.36% # Type of FU issued
system.cpu0.iq.FU_type_0::IntMult            18326992      0.79%     56.15% # Type of FU issued
system.cpu0.iq.FU_type_0::IntDiv              3802453      0.16%     56.31% # Type of FU issued
system.cpu0.iq.FU_type_0::FloatAdd                  0      0.00%     56.31% # Type of FU issued
system.cpu0.iq.FU_type_0::FloatCmp                  4      0.00%     56.31% # Type of FU issued
system.cpu0.iq.FU_type_0::FloatCvt                 12      0.00%     56.31% # Type of FU issued
system.cpu0.iq.FU_type_0::FloatMult                 0      0.00%     56.31% # Type of FU issued
system.cpu0.iq.FU_type_0::FloatMultAcc              0      0.00%     56.31% # Type of FU issued
system.cpu0.iq.FU_type_0::FloatDiv                  2      0.00%     56.31% # Type of FU issued
system.cpu0.iq.FU_type_0::FloatMisc                 4      0.00%     56.31% # Type of FU issued
system.cpu0.iq.FU_type_0::FloatSqrt                 0      0.00%     56.31% # Type of FU issued
system.cpu0.iq.FU_type_0::SimdAdd                   0      0.00%     56.31% # Type of FU issued
system.cpu0.iq.FU_type_0::SimdAddAcc                0      0.00%     56.31% # Type of FU issued
system.cpu0.iq.FU_type_0::SimdAlu                   0      0.00%     56.31% # Type of FU issued
system.cpu0.iq.FU_type_0::SimdCmp                   0      0.00%     56.31% # Type of FU issued
system.cpu0.iq.FU_type_0::SimdCvt                   0      0.00%     56.31% # Type of FU issued
system.cpu0.iq.FU_type_0::SimdMisc                  0      0.00%     56.31% # Type of FU issued
system.cpu0.iq.FU_type_0::SimdMult                  0      0.00%     56.31% # Type of FU issued
system.cpu0.iq.FU_type_0::SimdMultAcc               0      0.00%     56.31% # Type of FU issued
system.cpu0.iq.FU_type_0::SimdShift                 0      0.00%     56.31% # Type of FU issued
system.cpu0.iq.FU_type_0::SimdShiftAcc              0      0.00%     56.31% # Type of FU issued
system.cpu0.iq.FU_type_0::SimdDiv                   0      0.00%     56.31% # Type of FU issued
system.cpu0.iq.FU_type_0::SimdSqrt                  0      0.00%     56.31% # Type of FU issued
system.cpu0.iq.FU_type_0::SimdFloatAdd              0      0.00%     56.31% # Type of FU issued
system.cpu0.iq.FU_type_0::SimdFloatAlu              0      0.00%     56.31% # Type of FU issued
system.cpu0.iq.FU_type_0::SimdFloatCmp              0      0.00%     56.31% # Type of FU issued
system.cpu0.iq.FU_type_0::SimdFloatCvt              0      0.00%     56.31% # Type of FU issued
system.cpu0.iq.FU_type_0::SimdFloatDiv              0      0.00%     56.31% # Type of FU issued
system.cpu0.iq.FU_type_0::SimdFloatMisc             0      0.00%     56.31% # Type of FU issued
system.cpu0.iq.FU_type_0::SimdFloatMult             0      0.00%     56.31% # Type of FU issued
system.cpu0.iq.FU_type_0::SimdFloatMultAcc            0      0.00%     56.31% # Type of FU issued
system.cpu0.iq.FU_type_0::SimdFloatSqrt             0      0.00%     56.31% # Type of FU issued
system.cpu0.iq.FU_type_0::SimdReduceAdd             0      0.00%     56.31% # Type of FU issued
system.cpu0.iq.FU_type_0::SimdReduceAlu             0      0.00%     56.31% # Type of FU issued
system.cpu0.iq.FU_type_0::SimdReduceCmp             0      0.00%     56.31% # Type of FU issued
system.cpu0.iq.FU_type_0::SimdFloatReduceAdd            0      0.00%     56.31% # Type of FU issued
system.cpu0.iq.FU_type_0::SimdFloatReduceCmp            0      0.00%     56.31% # Type of FU issued
system.cpu0.iq.FU_type_0::SimdAes                   0      0.00%     56.31% # Type of FU issued
system.cpu0.iq.FU_type_0::SimdAesMix                0      0.00%     56.31% # Type of FU issued
system.cpu0.iq.FU_type_0::SimdSha1Hash              0      0.00%     56.31% # Type of FU issued
system.cpu0.iq.FU_type_0::SimdSha1Hash2             0      0.00%     56.31% # Type of FU issued
system.cpu0.iq.FU_type_0::SimdSha256Hash            0      0.00%     56.31% # Type of FU issued
system.cpu0.iq.FU_type_0::SimdSha256Hash2            0      0.00%     56.31% # Type of FU issued
system.cpu0.iq.FU_type_0::SimdShaSigma2             0      0.00%     56.31% # Type of FU issued
system.cpu0.iq.FU_type_0::SimdShaSigma3             0      0.00%     56.31% # Type of FU issued
system.cpu0.iq.FU_type_0::SimdPredAlu               0      0.00%     56.31% # Type of FU issued
system.cpu0.iq.FU_type_0::MemRead           741732913     31.91%     88.22% # Type of FU issued
system.cpu0.iq.FU_type_0::MemWrite          273901451     11.78%    100.00% # Type of FU issued
system.cpu0.iq.FU_type_0::FloatMemRead             10      0.00%    100.00% # Type of FU issued
system.cpu0.iq.FU_type_0::FloatMemWrite            16      0.00%    100.00% # Type of FU issued
system.cpu0.iq.FU_type_0::IprAccess                 0      0.00%    100.00% # Type of FU issued
system.cpu0.iq.FU_type_0::InstPrefetch              0      0.00%    100.00% # Type of FU issued
system.cpu0.iq.FU_type_0::total            2324781559                       # Type of FU issued
system.cpu0.iq.fp_alu_accesses                     50                       # Number of floating point alu accesses
system.cpu0.iq.fp_inst_queue_reads                 98                       # Number of floating instruction queue reads
system.cpu0.iq.fp_inst_queue_wakeup_accesses           48                       # Number of floating instruction queue wakeup accesses
system.cpu0.iq.fp_inst_queue_writes               628                       # Number of floating instruction queue writes
system.cpu0.iq.fu_busy_cnt                    4383164                       # FU busy when requested
system.cpu0.iq.fu_busy_rate                  0.001885                       # FU busy rate (busy events/executed inst)
system.cpu0.iq.fu_full::No_OpClass                  0      0.00%      0.00% # attempts to use FU when none available
system.cpu0.iq.fu_full::IntAlu                 701264     16.00%     16.00% # attempts to use FU when none available
system.cpu0.iq.fu_full::IntMult                     0      0.00%     16.00% # attempts to use FU when none available
system.cpu0.iq.fu_full::IntDiv                      0      0.00%     16.00% # attempts to use FU when none available
system.cpu0.iq.fu_full::FloatAdd                    0      0.00%     16.00% # attempts to use FU when none available
system.cpu0.iq.fu_full::FloatCmp                    0      0.00%     16.00% # attempts to use FU when none available
system.cpu0.iq.fu_full::FloatCvt                    0      0.00%     16.00% # attempts to use FU when none available
system.cpu0.iq.fu_full::FloatMult                   0      0.00%     16.00% # attempts to use FU when none available
system.cpu0.iq.fu_full::FloatMultAcc                0      0.00%     16.00% # attempts to use FU when none available
system.cpu0.iq.fu_full::FloatDiv                    0      0.00%     16.00% # attempts to use FU when none available
system.cpu0.iq.fu_full::FloatMisc                   0      0.00%     16.00% # attempts to use FU when none available
system.cpu0.iq.fu_full::FloatSqrt                   0      0.00%     16.00% # attempts to use FU when none available
system.cpu0.iq.fu_full::SimdAdd                     0      0.00%     16.00% # attempts to use FU when none available
system.cpu0.iq.fu_full::SimdAddAcc                  0      0.00%     16.00% # attempts to use FU when none available
system.cpu0.iq.fu_full::SimdAlu                     0      0.00%     16.00% # attempts to use FU when none available
system.cpu0.iq.fu_full::SimdCmp                     0      0.00%     16.00% # attempts to use FU when none available
system.cpu0.iq.fu_full::SimdCvt                     0      0.00%     16.00% # attempts to use FU when none available
system.cpu0.iq.fu_full::SimdMisc                    0      0.00%     16.00% # attempts to use FU when none available
system.cpu0.iq.fu_full::SimdMult                    0      0.00%     16.00% # attempts to use FU when none available
system.cpu0.iq.fu_full::SimdMultAcc                 0      0.00%     16.00% # attempts to use FU when none available
system.cpu0.iq.fu_full::SimdShift                   0      0.00%     16.00% # attempts to use FU when none available
system.cpu0.iq.fu_full::SimdShiftAcc                0      0.00%     16.00% # attempts to use FU when none available
system.cpu0.iq.fu_full::SimdDiv                     0      0.00%     16.00% # attempts to use FU when none available
system.cpu0.iq.fu_full::SimdSqrt                    0      0.00%     16.00% # attempts to use FU when none available
system.cpu0.iq.fu_full::SimdFloatAdd                0      0.00%     16.00% # attempts to use FU when none available
system.cpu0.iq.fu_full::SimdFloatAlu                0      0.00%     16.00% # attempts to use FU when none available
system.cpu0.iq.fu_full::SimdFloatCmp                0      0.00%     16.00% # attempts to use FU when none available
system.cpu0.iq.fu_full::SimdFloatCvt                0      0.00%     16.00% # attempts to use FU when none available
system.cpu0.iq.fu_full::SimdFloatDiv                0      0.00%     16.00% # attempts to use FU when none available
system.cpu0.iq.fu_full::SimdFloatMisc               0      0.00%     16.00% # attempts to use FU when none available
system.cpu0.iq.fu_full::SimdFloatMult               0      0.00%     16.00% # attempts to use FU when none available
system.cpu0.iq.fu_full::SimdFloatMultAcc            0      0.00%     16.00% # attempts to use FU when none available
system.cpu0.iq.fu_full::SimdFloatSqrt               0      0.00%     16.00% # attempts to use FU when none available
system.cpu0.iq.fu_full::SimdReduceAdd               0      0.00%     16.00% # attempts to use FU when none available
system.cpu0.iq.fu_full::SimdReduceAlu               0      0.00%     16.00% # attempts to use FU when none available
system.cpu0.iq.fu_full::SimdReduceCmp               0      0.00%     16.00% # attempts to use FU when none available
system.cpu0.iq.fu_full::SimdFloatReduceAdd            0      0.00%     16.00% # attempts to use FU when none available
system.cpu0.iq.fu_full::SimdFloatReduceCmp            0      0.00%     16.00% # attempts to use FU when none available
system.cpu0.iq.fu_full::SimdAes                     0      0.00%     16.00% # attempts to use FU when none available
system.cpu0.iq.fu_full::SimdAesMix                  0      0.00%     16.00% # attempts to use FU when none available
system.cpu0.iq.fu_full::SimdSha1Hash                0      0.00%     16.00% # attempts to use FU when none available
system.cpu0.iq.fu_full::SimdSha1Hash2               0      0.00%     16.00% # attempts to use FU when none available
system.cpu0.iq.fu_full::SimdSha256Hash              0      0.00%     16.00% # attempts to use FU when none available
system.cpu0.iq.fu_full::SimdSha256Hash2             0      0.00%     16.00% # attempts to use FU when none available
system.cpu0.iq.fu_full::SimdShaSigma2               0      0.00%     16.00% # attempts to use FU when none available
system.cpu0.iq.fu_full::SimdShaSigma3               0      0.00%     16.00% # attempts to use FU when none available
system.cpu0.iq.fu_full::SimdPredAlu                 0      0.00%     16.00% # attempts to use FU when none available
system.cpu0.iq.fu_full::MemRead               3323394     75.82%     91.82% # attempts to use FU when none available
system.cpu0.iq.fu_full::MemWrite               358504      8.18%    100.00% # attempts to use FU when none available
system.cpu0.iq.fu_full::FloatMemRead                0      0.00%    100.00% # attempts to use FU when none available
system.cpu0.iq.fu_full::FloatMemWrite               2      0.00%    100.00% # attempts to use FU when none available
system.cpu0.iq.fu_full::IprAccess                   0      0.00%    100.00% # attempts to use FU when none available
system.cpu0.iq.fu_full::InstPrefetch                0      0.00%    100.00% # attempts to use FU when none available
system.cpu0.iq.int_alu_accesses            2321552739                       # Number of integer alu accesses
system.cpu0.iq.int_inst_queue_reads        8618661519                       # Number of integer instruction queue reads
system.cpu0.iq.int_inst_queue_wakeup_accesses   2292646060                       # Number of integer instruction queue wakeup accesses
system.cpu0.iq.int_inst_queue_writes       2430879034                       # Number of integer instruction queue writes
system.cpu0.iq.iqInstsAdded                2318252066                       # Number of instructions added to the IQ (excludes non-spec)
system.cpu0.iq.iqInstsIssued               2324781559                       # Number of instructions issued
system.cpu0.iq.iqNonSpecInstsAdded           11420438                       # Number of non-speculative instructions added to the IQ
system.cpu0.iq.iqSquashedInstsExamined      101184369                       # Number of squashed instructions iterated over during squash; mainly for profiling
system.cpu0.iq.iqSquashedInstsIssued           216295                       # Number of squashed instructions issued
system.cpu0.iq.iqSquashedNonSpecRemoved           939                       # Number of squashed non-spec instructions that were removed
system.cpu0.iq.iqSquashedOperandsExamined     40575867                       # Number of squashed operands that are examined and possibly removed from graph
system.cpu0.iq.issued_per_cycle::samples   3964499041                       # Number of insts issued each cycle
system.cpu0.iq.issued_per_cycle::mean        0.586400                       # Number of insts issued each cycle
system.cpu0.iq.issued_per_cycle::stdev       0.797265                       # Number of insts issued each cycle
system.cpu0.iq.issued_per_cycle::underflows            0      0.00%      0.00% # Number of insts issued each cycle
system.cpu0.iq.issued_per_cycle::0         2264773849     57.13%     57.13% # Number of insts issued each cycle
system.cpu0.iq.issued_per_cycle::1         1187435538     29.95%     87.08% # Number of insts issued each cycle
system.cpu0.iq.issued_per_cycle::2          427122944     10.77%     97.85% # Number of insts issued each cycle
system.cpu0.iq.issued_per_cycle::3           67277026      1.70%     99.55% # Number of insts issued each cycle
system.cpu0.iq.issued_per_cycle::4           11133569      0.28%     99.83% # Number of insts issued each cycle
system.cpu0.iq.issued_per_cycle::5            4705305      0.12%     99.95% # Number of insts issued each cycle
system.cpu0.iq.issued_per_cycle::6            1371006      0.03%     99.98% # Number of insts issued each cycle
system.cpu0.iq.issued_per_cycle::7             456214      0.01%     99.99% # Number of insts issued each cycle
system.cpu0.iq.issued_per_cycle::8             223590      0.01%    100.00% # Number of insts issued each cycle
system.cpu0.iq.issued_per_cycle::overflows            0      0.00%    100.00% # Number of insts issued each cycle
system.cpu0.iq.issued_per_cycle::min_value            0                       # Number of insts issued each cycle
system.cpu0.iq.issued_per_cycle::max_value            8                       # Number of insts issued each cycle
system.cpu0.iq.issued_per_cycle::total     3964499041                       # Number of insts issued each cycle
system.cpu0.iq.rate                          0.547033                       # Inst issue rate
system.cpu0.iq.vec_alu_accesses                     0                       # Number of vector alu accesses
system.cpu0.iq.vec_inst_queue_reads                 0                       # Number of vector instruction queue reads
system.cpu0.iq.vec_inst_queue_wakeup_accesses            0                       # Number of vector instruction queue wakeup accesses
system.cpu0.iq.vec_inst_queue_writes                0                       # Number of vector instruction queue writes
system.cpu0.itb.accesses                            0                       # DTB accesses
system.cpu0.itb.hits                                0                       # DTB hits
system.cpu0.itb.misses                              0                       # DTB misses
system.cpu0.itb.read_accesses                       0                       # DTB read accesses
system.cpu0.itb.read_hits                           0                       # DTB read hits
system.cpu0.itb.read_misses                         0                       # DTB read misses
system.cpu0.itb.write_accesses                      0                       # DTB write accesses
system.cpu0.itb.write_hits                          0                       # DTB write hits
system.cpu0.itb.write_misses                        0                       # DTB write misses
system.cpu0.memDep0.conflictingLoads         35269537                       # Number of conflicting loads.
system.cpu0.memDep0.conflictingStores         4816843                       # Number of conflicting stores.
system.cpu0.memDep0.insertedLoads           732437989                       # Number of loads inserted to the mem dependence unit.
system.cpu0.memDep0.insertedStores          278930826                       # Number of stores inserted to the mem dependence unit.
system.cpu0.misc_regfile_reads                   2899                       # number of misc regfile reads
system.cpu0.misc_regfile_writes                    22                       # number of misc regfile writes
system.cpu0.numCycles                      4249800869                       # number of cpu cycles simulated
system.cpu0.numWorkItemsCompleted                   0                       # number of work items this cpu completed
system.cpu0.numWorkItemsStarted                     0                       # number of work items this cpu started
system.cpu0.quiesceCycles                     5543366                       # Total number of cycles that CPU has spent quiesced or waiting for an interrupt
system.cpu0.rename.BlockCycles              572259716                       # Number of cycles rename is blocking
system.cpu0.rename.CommittedMaps           1421267142                       # Number of HB maps that are committed
system.cpu0.rename.IQFullEvents              25454234                       # Number of times rename has blocked due to IQ full
system.cpu0.rename.IdleCycles              1684025344                       # Number of cycles rename is idle
system.cpu0.rename.LQFullEvents              15202273                       # Number of times rename has blocked due to LQ full
system.cpu0.rename.ROBFullEvents                86623                       # Number of times rename has blocked due to ROB full
system.cpu0.rename.RenameLookups           2871858096                       # Number of register rename lookups that rename has made
system.cpu0.rename.RenamedInsts            2348658035                       # Number of instructions processed by rename
system.cpu0.rename.RenamedOperands         1509096854                       # Number of destination operands rename has renamed
system.cpu0.rename.RunCycles               1636675245                       # Number of cycles rename is running
system.cpu0.rename.SQFullEvents              15079630                       # Number of times rename has blocked due to SQ full
system.cpu0.rename.SquashCycles              13623663                       # Number of cycles rename is squashing
system.cpu0.rename.UnblockCycles             57696786                       # Number of cycles rename is unblocking
system.cpu0.rename.UndoneMaps                87829704                       # Number of HB maps that are undone due to squashing
system.cpu0.rename.fp_rename_lookups               40                       # Number of floating rename lookups
system.cpu0.rename.int_rename_lookups      2871858056                       # Number of integer rename lookups
system.cpu0.rename.serializeStallCycles        218287                       # count of cycles rename stalled for serializing inst
system.cpu0.rename.serializingInsts              8887                       # count of serializing insts renamed
system.cpu0.rename.skidInsts                 54970681                       # count of insts added to the skid buffer
system.cpu0.rename.tempSerializingInsts          8880                       # count of temporary serializing insts renamed
system.cpu0.rob.rob_reads                  6211585430                       # The number of ROB reads
system.cpu0.rob.rob_writes                 4681221219                       # The number of ROB writes
system.cpu0.timesIdled                       53922870                       # Number of times that the entire CPU went into an idle state and unscheduled itself
system.cpu0.workload.numSyscalls                 2866                       # Number of system calls
system.cpu1.branchPred.BTBCorrect                   0                       # Number of correct BTB predictions (this stat may not work properly.
system.cpu1.branchPred.BTBHitPct            93.739671                       # BTB Hit Percentage
system.cpu1.branchPred.BTBHits               17697523                       # Number of BTB hits
system.cpu1.branchPred.BTBLookups            18879438                       # Number of BTB lookups
system.cpu1.branchPred.RASInCorrect                 0                       # Number of incorrect RAS predictions.
system.cpu1.branchPred.condIncorrect          1780512                       # Number of conditional branches incorrect
system.cpu1.branchPred.condPredicted         32076154                       # Number of conditional branches predicted
system.cpu1.branchPred.indirectHits            914213                       # Number of indirect target hits.
system.cpu1.branchPred.indirectLookups         921172                       # Number of indirect predictor lookups.
system.cpu1.branchPred.indirectMisses            6959                       # Number of indirect misses.
system.cpu1.branchPred.lookups               35217162                       # Number of BP lookups
system.cpu1.branchPred.usedRAS                      0                       # Number of times the RAS was used to get a target.
system.cpu1.branchPredindirectMispredicted        46763                       # Number of mispredicted indirect branches.
system.cpu1.commit.amos                       3801575                       # Number of atomic instructions committed
system.cpu1.commit.branchMispredicts          1373728                       # The number of times a branch was mispredicted
system.cpu1.commit.branches                  29514981                       # Number of branches committed
system.cpu1.commit.bw_lim_events              2973280                       # number cycles where commit BW limit reached
system.cpu1.commit.commitNonSpecStalls       11405412                       # The number of times commit has been forced to stall to communicate backwards
system.cpu1.commit.commitSquashedInsts       13880245                       # The number of squashed insts skipped by commit
system.cpu1.commit.committedInsts           130055604                       # Number of instructions committed
system.cpu1.commit.committedOps             133857361                       # Number of ops (including micro ops) committed
system.cpu1.commit.committed_per_cycle::samples    635327150                       # Number of insts commited each cycle
system.cpu1.commit.committed_per_cycle::mean     0.210690                       # Number of insts commited each cycle
system.cpu1.commit.committed_per_cycle::stdev     0.893727                       # Number of insts commited each cycle
system.cpu1.commit.committed_per_cycle::underflows            0      0.00%      0.00% # Number of insts commited each cycle
system.cpu1.commit.committed_per_cycle::0    579426082     91.20%     91.20% # Number of insts commited each cycle
system.cpu1.commit.committed_per_cycle::1     27741076      4.37%     95.57% # Number of insts commited each cycle
system.cpu1.commit.committed_per_cycle::2      8896672      1.40%     96.97% # Number of insts commited each cycle
system.cpu1.commit.committed_per_cycle::3      9209659      1.45%     98.42% # Number of insts commited each cycle
system.cpu1.commit.committed_per_cycle::4      2543118      0.40%     98.82% # Number of insts commited each cycle
system.cpu1.commit.committed_per_cycle::5       740297      0.12%     98.93% # Number of insts commited each cycle
system.cpu1.commit.committed_per_cycle::6      3544995      0.56%     99.49% # Number of insts commited each cycle
system.cpu1.commit.committed_per_cycle::7       251971      0.04%     99.53% # Number of insts commited each cycle
system.cpu1.commit.committed_per_cycle::8      2973280      0.47%    100.00% # Number of insts commited each cycle
system.cpu1.commit.committed_per_cycle::overflows            0      0.00%    100.00% # Number of insts commited each cycle
system.cpu1.commit.committed_per_cycle::min_value            0                       # Number of insts commited each cycle
system.cpu1.commit.committed_per_cycle::max_value            8                       # Number of insts commited each cycle
system.cpu1.commit.committed_per_cycle::total    635327150                       # Number of insts commited each cycle
system.cpu1.commit.fp_insts                        12                       # Number of committed floating point instructions.
system.cpu1.commit.function_calls             1456783                       # Number of function calls committed.
system.cpu1.commit.int_insts                125261770                       # Number of committed integer instructions.
system.cpu1.commit.loads                     36888410                       # Number of loads committed
system.cpu1.commit.membars                    7603277                       # Number of memory barriers committed
system.cpu1.commit.op_class_0::No_OpClass      7603277      5.68%      5.68% # Class of committed instruction
system.cpu1.commit.op_class_0::IntAlu        77443120     57.85%     63.54% # Class of committed instruction
system.cpu1.commit.op_class_0::IntMult             44      0.00%     63.54% # Class of committed instruction
system.cpu1.commit.op_class_0::IntDiv              88      0.00%     63.54% # Class of committed instruction
system.cpu1.commit.op_class_0::FloatAdd             0      0.00%     63.54% # Class of committed instruction
system.cpu1.commit.op_class_0::FloatCmp             0      0.00%     63.54% # Class of committed instruction
system.cpu1.commit.op_class_0::FloatCvt             0      0.00%     63.54% # Class of committed instruction
system.cpu1.commit.op_class_0::FloatMult            0      0.00%     63.54% # Class of committed instruction
system.cpu1.commit.op_class_0::FloatMultAcc            0      0.00%     63.54% # Class of committed instruction
system.cpu1.commit.op_class_0::FloatDiv             0      0.00%     63.54% # Class of committed instruction
system.cpu1.commit.op_class_0::FloatMisc            0      0.00%     63.54% # Class of committed instruction
system.cpu1.commit.op_class_0::FloatSqrt            0      0.00%     63.54% # Class of committed instruction
system.cpu1.commit.op_class_0::SimdAdd              0      0.00%     63.54% # Class of committed instruction
system.cpu1.commit.op_class_0::SimdAddAcc            0      0.00%     63.54% # Class of committed instruction
system.cpu1.commit.op_class_0::SimdAlu              0      0.00%     63.54% # Class of committed instruction
system.cpu1.commit.op_class_0::SimdCmp              0      0.00%     63.54% # Class of committed instruction
system.cpu1.commit.op_class_0::SimdCvt              0      0.00%     63.54% # Class of committed instruction
system.cpu1.commit.op_class_0::SimdMisc             0      0.00%     63.54% # Class of committed instruction
system.cpu1.commit.op_class_0::SimdMult             0      0.00%     63.54% # Class of committed instruction
system.cpu1.commit.op_class_0::SimdMultAcc            0      0.00%     63.54% # Class of committed instruction
system.cpu1.commit.op_class_0::SimdShift            0      0.00%     63.54% # Class of committed instruction
system.cpu1.commit.op_class_0::SimdShiftAcc            0      0.00%     63.54% # Class of committed instruction
system.cpu1.commit.op_class_0::SimdDiv              0      0.00%     63.54% # Class of committed instruction
system.cpu1.commit.op_class_0::SimdSqrt             0      0.00%     63.54% # Class of committed instruction
system.cpu1.commit.op_class_0::SimdFloatAdd            0      0.00%     63.54% # Class of committed instruction
system.cpu1.commit.op_class_0::SimdFloatAlu            0      0.00%     63.54% # Class of committed instruction
system.cpu1.commit.op_class_0::SimdFloatCmp            0      0.00%     63.54% # Class of committed instruction
system.cpu1.commit.op_class_0::SimdFloatCvt            0      0.00%     63.54% # Class of committed instruction
system.cpu1.commit.op_class_0::SimdFloatDiv            0      0.00%     63.54% # Class of committed instruction
system.cpu1.commit.op_class_0::SimdFloatMisc            0      0.00%     63.54% # Class of committed instruction
system.cpu1.commit.op_class_0::SimdFloatMult            0      0.00%     63.54% # Class of committed instruction
system.cpu1.commit.op_class_0::SimdFloatMultAcc            0      0.00%     63.54% # Class of committed instruction
system.cpu1.commit.op_class_0::SimdFloatSqrt            0      0.00%     63.54% # Class of committed instruction
system.cpu1.commit.op_class_0::SimdReduceAdd            0      0.00%     63.54% # Class of committed instruction
system.cpu1.commit.op_class_0::SimdReduceAlu            0      0.00%     63.54% # Class of committed instruction
system.cpu1.commit.op_class_0::SimdReduceCmp            0      0.00%     63.54% # Class of committed instruction
system.cpu1.commit.op_class_0::SimdFloatReduceAdd            0      0.00%     63.54% # Class of committed instruction
system.cpu1.commit.op_class_0::SimdFloatReduceCmp            0      0.00%     63.54% # Class of committed instruction
system.cpu1.commit.op_class_0::SimdAes              0      0.00%     63.54% # Class of committed instruction
system.cpu1.commit.op_class_0::SimdAesMix            0      0.00%     63.54% # Class of committed instruction
system.cpu1.commit.op_class_0::SimdSha1Hash            0      0.00%     63.54% # Class of committed instruction
system.cpu1.commit.op_class_0::SimdSha1Hash2            0      0.00%     63.54% # Class of committed instruction
system.cpu1.commit.op_class_0::SimdSha256Hash            0      0.00%     63.54% # Class of committed instruction
system.cpu1.commit.op_class_0::SimdSha256Hash2            0      0.00%     63.54% # Class of committed instruction
system.cpu1.commit.op_class_0::SimdShaSigma2            0      0.00%     63.54% # Class of committed instruction
system.cpu1.commit.op_class_0::SimdShaSigma3            0      0.00%     63.54% # Class of committed instruction
system.cpu1.commit.op_class_0::SimdPredAlu            0      0.00%     63.54% # Class of committed instruction
system.cpu1.commit.op_class_0::MemRead       40689985     30.40%     93.93% # Class of committed instruction
system.cpu1.commit.op_class_0::MemWrite       8120835      6.07%    100.00% # Class of committed instruction
system.cpu1.commit.op_class_0::FloatMemRead            0      0.00%    100.00% # Class of committed instruction
system.cpu1.commit.op_class_0::FloatMemWrite           12      0.00%    100.00% # Class of committed instruction
system.cpu1.commit.op_class_0::IprAccess            0      0.00%    100.00% # Class of committed instruction
system.cpu1.commit.op_class_0::InstPrefetch            0      0.00%    100.00% # Class of committed instruction
system.cpu1.commit.op_class_0::total        133857361                       # Class of committed instruction
system.cpu1.commit.refs                      48810832                       # Number of memory references committed
system.cpu1.commit.swp_count                        0                       # Number of s/w prefetches committed
system.cpu1.commit.vec_insts                        0                       # Number of committed Vector instructions.
system.cpu1.committedInsts                  130055604                       # Number of Instructions Simulated
system.cpu1.committedOps                    133857361                       # Number of Ops (including micro ops) Simulated
system.cpu1.cpi                              4.912281                       # CPI: Cycles Per Instruction
system.cpu1.cpi_total                        4.912281                       # CPI: Total CPI of All Threads
system.cpu1.decode.BlockedCycles            558693679                       # Number of cycles decode is blocked
system.cpu1.decode.BranchMispred               424961                       # Number of times decode detected a branch misprediction
system.cpu1.decode.BranchResolved            17070500                       # Number of times decode resolved a branch
system.cpu1.decode.DecodedInsts             153277696                       # Number of instructions handled by decode
system.cpu1.decode.IdleCycles                17924682                       # Number of cycles decode is idle
system.cpu1.decode.RunCycles                 51399436                       # Number of cycles decode is running
system.cpu1.decode.SquashCycles               1374807                       # Number of cycles decode is squashing
system.cpu1.decode.SquashedInsts              1124609                       # Number of squashed instructions handled by decode
system.cpu1.decode.UnblockCycles              8603858                       # Number of cycles decode is unblocking
system.cpu1.dtb.accesses                            0                       # DTB accesses
system.cpu1.dtb.hits                                0                       # DTB hits
system.cpu1.dtb.misses                              0                       # DTB misses
system.cpu1.dtb.read_accesses                       0                       # DTB read accesses
system.cpu1.dtb.read_hits                           0                       # DTB read hits
system.cpu1.dtb.read_misses                         0                       # DTB read misses
system.cpu1.dtb.write_accesses                      0                       # DTB write accesses
system.cpu1.dtb.write_hits                          0                       # DTB write hits
system.cpu1.dtb.write_misses                        0                       # DTB write misses
system.cpu1.fetch.Branches                   35217162                       # Number of branches that fetch encountered
system.cpu1.fetch.CacheLines                 19623821                       # Number of cache lines fetched
system.cpu1.fetch.Cycles                    615356010                       # Number of cycles fetch has run and was not squashing or blocked
system.cpu1.fetch.IcacheSquashes               146373                       # Number of outstanding Icache misses that were squashed
system.cpu1.fetch.Insts                     154220286                       # Number of instructions fetch has processed
system.cpu1.fetch.MiscStallCycles                   1                       # Number of cycles fetch has spent waiting on interrupts, or bad addresses, or out of MSHRs
system.cpu1.fetch.SquashCycles                3563182                       # Number of cycles fetch has spent squashing
system.cpu1.fetch.branchRate                 0.055124                       # Number of branch fetches per cycle
system.cpu1.fetch.icacheStallCycles          20858860                       # Number of cycles fetch is stalled on an Icache miss
system.cpu1.fetch.predictedBranches          18611736                       # Number of branches that fetch has predicted taken
system.cpu1.fetch.rate                       0.241396                       # Number of inst fetches per cycle
system.cpu1.fetch.rateDist::samples         637996462                       # Number of instructions fetched each cycle (Total)
system.cpu1.fetch.rateDist::mean             0.247686                       # Number of instructions fetched each cycle (Total)
system.cpu1.fetch.rateDist::stdev            0.692830                       # Number of instructions fetched each cycle (Total)
system.cpu1.fetch.rateDist::underflows              0      0.00%      0.00% # Number of instructions fetched each cycle (Total)
system.cpu1.fetch.rateDist::0               543401700     85.17%     85.17% # Number of instructions fetched each cycle (Total)
system.cpu1.fetch.rateDist::1                53883347      8.45%     93.62% # Number of instructions fetched each cycle (Total)
system.cpu1.fetch.rateDist::2                24622324      3.86%     97.48% # Number of instructions fetched each cycle (Total)
system.cpu1.fetch.rateDist::3                10303326      1.61%     99.09% # Number of instructions fetched each cycle (Total)
system.cpu1.fetch.rateDist::4                 5010428      0.79%     99.88% # Number of instructions fetched each cycle (Total)
system.cpu1.fetch.rateDist::5                  710832      0.11%     99.99% # Number of instructions fetched each cycle (Total)
system.cpu1.fetch.rateDist::6                   63535      0.01%    100.00% # Number of instructions fetched each cycle (Total)
system.cpu1.fetch.rateDist::7                     167      0.00%    100.00% # Number of instructions fetched each cycle (Total)
system.cpu1.fetch.rateDist::8                     803      0.00%    100.00% # Number of instructions fetched each cycle (Total)
system.cpu1.fetch.rateDist::overflows               0      0.00%    100.00% # Number of instructions fetched each cycle (Total)
system.cpu1.fetch.rateDist::min_value               0                       # Number of instructions fetched each cycle (Total)
system.cpu1.fetch.rateDist::max_value               8                       # Number of instructions fetched each cycle (Total)
system.cpu1.fetch.rateDist::total           637996462                       # Number of instructions fetched each cycle (Total)
system.cpu1.fp_regfile_reads                       12                       # number of floating regfile reads
system.cpu1.idleCycles                         873168                       # Total number of cycles that the CPU has spent unscheduled due to idling
system.cpu1.iew.branchMispredicts             1486833                       # Number of branch mispredicts detected at execute
system.cpu1.iew.exec_branches                31355879                       # Number of branches executed
system.cpu1.iew.exec_nop                            0                       # number of nop insts executed
system.cpu1.iew.exec_rate                    0.224698                       # Inst execution rate
system.cpu1.iew.exec_refs                    51877595                       # number of memory reference insts executed
system.cpu1.iew.exec_stores                  12379181                       # Number of stores executed
system.cpu1.iew.exec_swp                            0                       # number of swp insts executed
system.cpu1.iew.iewBlockCycles              480198285                       # Number of cycles IEW is blocking
system.cpu1.iew.iewDispLoadInsts             40009801                       # Number of dispatched load instructions
system.cpu1.iew.iewDispNonSpecInsts           3802278                       # Number of dispatched non-speculative instructions
system.cpu1.iew.iewDispSquashedInsts          1173874                       # Number of squashed instructions skipped by dispatch
system.cpu1.iew.iewDispStoreInsts            12680577                       # Number of dispatched store instructions
system.cpu1.iew.iewDispatchedInsts          147724256                       # Number of instructions dispatched to IQ
system.cpu1.iew.iewExecLoadInsts             39498414                       # Number of load instructions executed
system.cpu1.iew.iewExecSquashedInsts          1525566                       # Number of squashed instructions skipped in execute
system.cpu1.iew.iewExecutedInsts            143552466                       # Number of executed instructions
system.cpu1.iew.iewIQFullEvents               2314719                       # Number of times the IQ has become full, causing a stall
system.cpu1.iew.iewIdleCycles                       0                       # Number of cycles IEW is idle
system.cpu1.iew.iewLSQFullEvents              4134977                       # Number of times the LSQ has become full, causing a stall
system.cpu1.iew.iewSquashCycles               1374807                       # Number of cycles IEW is squashing
system.cpu1.iew.iewUnblockCycles             11115893                       # Number of cycles IEW is unblocking
system.cpu1.iew.lsq.thread0.blockedLoads            0                       # Number of blocked loads due to partial load-store forwarding
system.cpu1.iew.lsq.thread0.cacheBlocked        39877                       # Number of times an access to memory failed due to the cache being blocked
system.cpu1.iew.lsq.thread0.forwLoads          979296                       # Number of loads that had data forwarded from stores
system.cpu1.iew.lsq.thread0.ignoredResponses        29426                       # Number of memory responses ignored because the instruction is squashed
system.cpu1.iew.lsq.thread0.invAddrLoads            0                       # Number of loads ignored due to an invalid address
system.cpu1.iew.lsq.thread0.invAddrSwpfs            0                       # Number of software prefetches ignored due to an invalid address
system.cpu1.iew.lsq.thread0.memOrderViolation         1298                       # Number of memory ordering violations
system.cpu1.iew.lsq.thread0.rescheduledLoads         3096                       # Number of loads that were rescheduled
system.cpu1.iew.lsq.thread0.squashedLoads      3121391                       # Number of loads squashed
system.cpu1.iew.lsq.thread0.squashedStores       758155                       # Number of stores squashed
system.cpu1.iew.memOrderViolationEvents          1298                       # Number of memory order violations
system.cpu1.iew.predictedNotTakenIncorrect       501781                       # Number of branches that were predicted not taken incorrectly
system.cpu1.iew.predictedTakenIncorrect        985052                       # Number of branches that were predicted taken incorrectly
system.cpu1.iew.wb_consumers                 81184826                       # num instructions consuming a value
system.cpu1.iew.wb_count                    142578714                       # cumulative count of insts written-back
system.cpu1.iew.wb_fanout                    0.864375                       # average fanout of values written-back
system.cpu1.iew.wb_producers                 70174138                       # num instructions producing a value
system.cpu1.iew.wb_rate                      0.223173                       # insts written-back per cycle
system.cpu1.iew.wb_sent                     142617750                       # cumulative count of insts sent to commit
system.cpu1.int_regfile_reads               178580975                       # number of integer regfile reads
system.cpu1.int_regfile_writes               95847217                       # number of integer regfile writes
system.cpu1.ipc                              0.203571                       # IPC: Instructions Per Cycle
system.cpu1.ipc_total                        0.203571                       # IPC: Total IPC of All Threads
system.cpu1.iq.FU_type_0::No_OpClass          7603383      5.24%      5.24% # Type of FU issued
system.cpu1.iq.FU_type_0::IntAlu             85176930     58.71%     63.95% # Type of FU issued
system.cpu1.iq.FU_type_0::IntMult                  45      0.00%     63.95% # Type of FU issued
system.cpu1.iq.FU_type_0::IntDiv                   88      0.00%     63.95% # Type of FU issued
system.cpu1.iq.FU_type_0::FloatAdd                  0      0.00%     63.95% # Type of FU issued
system.cpu1.iq.FU_type_0::FloatCmp                  0      0.00%     63.95% # Type of FU issued
system.cpu1.iq.FU_type_0::FloatCvt                  0      0.00%     63.95% # Type of FU issued
system.cpu1.iq.FU_type_0::FloatMult                 0      0.00%     63.95% # Type of FU issued
system.cpu1.iq.FU_type_0::FloatMultAcc              0      0.00%     63.95% # Type of FU issued
system.cpu1.iq.FU_type_0::FloatDiv                  0      0.00%     63.95% # Type of FU issued
system.cpu1.iq.FU_type_0::FloatMisc                 0      0.00%     63.95% # Type of FU issued
system.cpu1.iq.FU_type_0::FloatSqrt                 0      0.00%     63.95% # Type of FU issued
system.cpu1.iq.FU_type_0::SimdAdd                   0      0.00%     63.95% # Type of FU issued
system.cpu1.iq.FU_type_0::SimdAddAcc                0      0.00%     63.95% # Type of FU issued
system.cpu1.iq.FU_type_0::SimdAlu                   0      0.00%     63.95% # Type of FU issued
system.cpu1.iq.FU_type_0::SimdCmp                   0      0.00%     63.95% # Type of FU issued
system.cpu1.iq.FU_type_0::SimdCvt                   0      0.00%     63.95% # Type of FU issued
system.cpu1.iq.FU_type_0::SimdMisc                  0      0.00%     63.95% # Type of FU issued
system.cpu1.iq.FU_type_0::SimdMult                  0      0.00%     63.95% # Type of FU issued
system.cpu1.iq.FU_type_0::SimdMultAcc               0      0.00%     63.95% # Type of FU issued
system.cpu1.iq.FU_type_0::SimdShift                 0      0.00%     63.95% # Type of FU issued
system.cpu1.iq.FU_type_0::SimdShiftAcc              0      0.00%     63.95% # Type of FU issued
system.cpu1.iq.FU_type_0::SimdDiv                   0      0.00%     63.95% # Type of FU issued
system.cpu1.iq.FU_type_0::SimdSqrt                  0      0.00%     63.95% # Type of FU issued
system.cpu1.iq.FU_type_0::SimdFloatAdd              0      0.00%     63.95% # Type of FU issued
system.cpu1.iq.FU_type_0::SimdFloatAlu              0      0.00%     63.95% # Type of FU issued
system.cpu1.iq.FU_type_0::SimdFloatCmp              0      0.00%     63.95% # Type of FU issued
system.cpu1.iq.FU_type_0::SimdFloatCvt              0      0.00%     63.95% # Type of FU issued
system.cpu1.iq.FU_type_0::SimdFloatDiv              0      0.00%     63.95% # Type of FU issued
system.cpu1.iq.FU_type_0::SimdFloatMisc             0      0.00%     63.95% # Type of FU issued
system.cpu1.iq.FU_type_0::SimdFloatMult             0      0.00%     63.95% # Type of FU issued
system.cpu1.iq.FU_type_0::SimdFloatMultAcc            0      0.00%     63.95% # Type of FU issued
system.cpu1.iq.FU_type_0::SimdFloatSqrt             0      0.00%     63.95% # Type of FU issued
system.cpu1.iq.FU_type_0::SimdReduceAdd             0      0.00%     63.95% # Type of FU issued
system.cpu1.iq.FU_type_0::SimdReduceAlu             0      0.00%     63.95% # Type of FU issued
system.cpu1.iq.FU_type_0::SimdReduceCmp             0      0.00%     63.95% # Type of FU issued
system.cpu1.iq.FU_type_0::SimdFloatReduceAdd            0      0.00%     63.95% # Type of FU issued
system.cpu1.iq.FU_type_0::SimdFloatReduceCmp            0      0.00%     63.95% # Type of FU issued
system.cpu1.iq.FU_type_0::SimdAes                   0      0.00%     63.95% # Type of FU issued
system.cpu1.iq.FU_type_0::SimdAesMix                0      0.00%     63.95% # Type of FU issued
system.cpu1.iq.FU_type_0::SimdSha1Hash              0      0.00%     63.95% # Type of FU issued
system.cpu1.iq.FU_type_0::SimdSha1Hash2             0      0.00%     63.95% # Type of FU issued
system.cpu1.iq.FU_type_0::SimdSha256Hash            0      0.00%     63.95% # Type of FU issued
system.cpu1.iq.FU_type_0::SimdSha256Hash2            0      0.00%     63.95% # Type of FU issued
system.cpu1.iq.FU_type_0::SimdShaSigma2             0      0.00%     63.95% # Type of FU issued
system.cpu1.iq.FU_type_0::SimdShaSigma3             0      0.00%     63.95% # Type of FU issued
system.cpu1.iq.FU_type_0::SimdPredAlu               0      0.00%     63.95% # Type of FU issued
system.cpu1.iq.FU_type_0::MemRead            43666201     30.10%     94.05% # Type of FU issued
system.cpu1.iq.FU_type_0::MemWrite            8631373      5.95%    100.00% # Type of FU issued
system.cpu1.iq.FU_type_0::FloatMemRead              0      0.00%    100.00% # Type of FU issued
system.cpu1.iq.FU_type_0::FloatMemWrite            12      0.00%    100.00% # Type of FU issued
system.cpu1.iq.FU_type_0::IprAccess                 0      0.00%    100.00% # Type of FU issued
system.cpu1.iq.FU_type_0::InstPrefetch              0      0.00%    100.00% # Type of FU issued
system.cpu1.iq.FU_type_0::total             145078032                       # Type of FU issued
system.cpu1.iq.fp_alu_accesses                     14                       # Number of floating point alu accesses
system.cpu1.iq.fp_inst_queue_reads                 26                       # Number of floating instruction queue reads
system.cpu1.iq.fp_inst_queue_wakeup_accesses           12                       # Number of floating instruction queue wakeup accesses
system.cpu1.iq.fp_inst_queue_writes                12                       # Number of floating instruction queue writes
system.cpu1.iq.fu_busy_cnt                    4077043                       # FU busy when requested
system.cpu1.iq.fu_busy_rate                  0.028102                       # FU busy rate (busy events/executed inst)
system.cpu1.iq.fu_full::No_OpClass                  0      0.00%      0.00% # attempts to use FU when none available
system.cpu1.iq.fu_full::IntAlu                 662639     16.25%     16.25% # attempts to use FU when none available
system.cpu1.iq.fu_full::IntMult                     0      0.00%     16.25% # attempts to use FU when none available
system.cpu1.iq.fu_full::IntDiv                      0      0.00%     16.25% # attempts to use FU when none available
system.cpu1.iq.fu_full::FloatAdd                    0      0.00%     16.25% # attempts to use FU when none available
system.cpu1.iq.fu_full::FloatCmp                    0      0.00%     16.25% # attempts to use FU when none available
system.cpu1.iq.fu_full::FloatCvt                    0      0.00%     16.25% # attempts to use FU when none available
system.cpu1.iq.fu_full::FloatMult                   0      0.00%     16.25% # attempts to use FU when none available
system.cpu1.iq.fu_full::FloatMultAcc                0      0.00%     16.25% # attempts to use FU when none available
system.cpu1.iq.fu_full::FloatDiv                    0      0.00%     16.25% # attempts to use FU when none available
system.cpu1.iq.fu_full::FloatMisc                   0      0.00%     16.25% # attempts to use FU when none available
system.cpu1.iq.fu_full::FloatSqrt                   0      0.00%     16.25% # attempts to use FU when none available
system.cpu1.iq.fu_full::SimdAdd                     0      0.00%     16.25% # attempts to use FU when none available
system.cpu1.iq.fu_full::SimdAddAcc                  0      0.00%     16.25% # attempts to use FU when none available
system.cpu1.iq.fu_full::SimdAlu                     0      0.00%     16.25% # attempts to use FU when none available
system.cpu1.iq.fu_full::SimdCmp                     0      0.00%     16.25% # attempts to use FU when none available
system.cpu1.iq.fu_full::SimdCvt                     0      0.00%     16.25% # attempts to use FU when none available
system.cpu1.iq.fu_full::SimdMisc                    0      0.00%     16.25% # attempts to use FU when none available
system.cpu1.iq.fu_full::SimdMult                    0      0.00%     16.25% # attempts to use FU when none available
system.cpu1.iq.fu_full::SimdMultAcc                 0      0.00%     16.25% # attempts to use FU when none available
system.cpu1.iq.fu_full::SimdShift                   0      0.00%     16.25% # attempts to use FU when none available
system.cpu1.iq.fu_full::SimdShiftAcc                0      0.00%     16.25% # attempts to use FU when none available
system.cpu1.iq.fu_full::SimdDiv                     0      0.00%     16.25% # attempts to use FU when none available
system.cpu1.iq.fu_full::SimdSqrt                    0      0.00%     16.25% # attempts to use FU when none available
system.cpu1.iq.fu_full::SimdFloatAdd                0      0.00%     16.25% # attempts to use FU when none available
system.cpu1.iq.fu_full::SimdFloatAlu                0      0.00%     16.25% # attempts to use FU when none available
system.cpu1.iq.fu_full::SimdFloatCmp                0      0.00%     16.25% # attempts to use FU when none available
system.cpu1.iq.fu_full::SimdFloatCvt                0      0.00%     16.25% # attempts to use FU when none available
system.cpu1.iq.fu_full::SimdFloatDiv                0      0.00%     16.25% # attempts to use FU when none available
system.cpu1.iq.fu_full::SimdFloatMisc               0      0.00%     16.25% # attempts to use FU when none available
system.cpu1.iq.fu_full::SimdFloatMult               0      0.00%     16.25% # attempts to use FU when none available
system.cpu1.iq.fu_full::SimdFloatMultAcc            0      0.00%     16.25% # attempts to use FU when none available
system.cpu1.iq.fu_full::SimdFloatSqrt               0      0.00%     16.25% # attempts to use FU when none available
system.cpu1.iq.fu_full::SimdReduceAdd               0      0.00%     16.25% # attempts to use FU when none available
system.cpu1.iq.fu_full::SimdReduceAlu               0      0.00%     16.25% # attempts to use FU when none available
system.cpu1.iq.fu_full::SimdReduceCmp               0      0.00%     16.25% # attempts to use FU when none available
system.cpu1.iq.fu_full::SimdFloatReduceAdd            0      0.00%     16.25% # attempts to use FU when none available
system.cpu1.iq.fu_full::SimdFloatReduceCmp            0      0.00%     16.25% # attempts to use FU when none available
system.cpu1.iq.fu_full::SimdAes                     0      0.00%     16.25% # attempts to use FU when none available
system.cpu1.iq.fu_full::SimdAesMix                  0      0.00%     16.25% # attempts to use FU when none available
system.cpu1.iq.fu_full::SimdSha1Hash                0      0.00%     16.25% # attempts to use FU when none available
system.cpu1.iq.fu_full::SimdSha1Hash2               0      0.00%     16.25% # attempts to use FU when none available
system.cpu1.iq.fu_full::SimdSha256Hash              0      0.00%     16.25% # attempts to use FU when none available
system.cpu1.iq.fu_full::SimdSha256Hash2             0      0.00%     16.25% # attempts to use FU when none available
system.cpu1.iq.fu_full::SimdShaSigma2               0      0.00%     16.25% # attempts to use FU when none available
system.cpu1.iq.fu_full::SimdShaSigma3               0      0.00%     16.25% # attempts to use FU when none available
system.cpu1.iq.fu_full::SimdPredAlu                 0      0.00%     16.25% # attempts to use FU when none available
system.cpu1.iq.fu_full::MemRead               3082824     75.61%     91.87% # attempts to use FU when none available
system.cpu1.iq.fu_full::MemWrite               331578      8.13%    100.00% # attempts to use FU when none available
[...]
system.cpu1.dcache.ReadReq_miss_rate::total     0.209592                       # miss rate for ReadReq accesses
system.cpu1.dcache.ReadReq_avg_miss_latency::.cpu1.data 80959.193541                       # average ReadReq miss latency
system.cpu1.dcache.ReadReq_avg_miss_latency::total 80959.193541                       # average ReadReq miss latency
system.cpu1.dcache.ReadReq_mshr_hits::.cpu1.data      7843479                       # number of ReadReq MSHR hits
system.cpu1.dcache.ReadReq_mshr_hits::total      7843479                       # number of ReadReq MSHR hits
system.cpu1.dcache.ReadReq_mshr_misses::.cpu1.data      8044104                       # number of ReadReq MSHR misses
system.cpu1.dcache.ReadReq_mshr_misses::total      8044104                       # number of ReadReq MSHR misses
system.cpu1.dcache.ReadReq_mshr_miss_latency::.cpu1.data 773960280000                       # number of ReadReq MSHR miss cycles
system.cpu1.dcache.ReadReq_mshr_miss_latency::total 773960280000                       # number of ReadReq MSHR miss cycles
system.cpu1.dcache.ReadReq_mshr_miss_rate::.cpu1.data     0.106119                       # mshr miss rate for ReadReq accesses
system.cpu1.dcache.ReadReq_mshr_miss_rate::total     0.106119                       # mshr miss rate for ReadReq accesses
system.cpu1.dcache.ReadReq_avg_mshr_miss_latency::.cpu1.data 96214.603889                       # average ReadReq mshr miss latency
system.cpu1.dcache.ReadReq_avg_mshr_miss_latency::total 96214.603889                       # average ReadReq mshr miss latency
system.cpu1.dcache.WriteReq_hits::.cpu1.data      2748836                       # number of WriteReq hits
system.cpu1.dcache.WriteReq_hits::total       2748836                       # number of WriteReq hits
system.cpu1.dcache.WriteReq_misses::.cpu1.data       920536                       # number of WriteReq misses
system.cpu1.dcache.WriteReq_misses::total       920536                       # number of WriteReq misses
system.cpu1.dcache.WriteReq_miss_latency::.cpu1.data  57142779187                       # number of WriteReq miss cycles
system.cpu1.dcache.WriteReq_miss_latency::total  57142779187                       # number of WriteReq miss cycles
system.cpu1.dcache.WriteReq_accesses::.cpu1.data      3669372                       # number of WriteReq accesses(hits+misses)
system.cpu1.dcache.WriteReq_accesses::total      3669372                       # number of WriteReq accesses(hits+misses)
system.cpu1.dcache.WriteReq_miss_rate::.cpu1.data     0.250870                       # miss rate for WriteReq accesses
system.cpu1.dcache.WriteReq_miss_rate::total     0.250870                       # miss rate for WriteReq accesses
system.cpu1.dcache.WriteReq_avg_miss_latency::.cpu1.data 62075.550752                       # average WriteReq miss latency
system.cpu1.dcache.WriteReq_avg_miss_latency::total 62075.550752                       # average WriteReq miss latency
system.cpu1.dcache.WriteReq_mshr_hits::.cpu1.data       813889                       # number of WriteReq MSHR hits
system.cpu1.dcache.WriteReq_mshr_hits::total       813889                       # number of WriteReq MSHR hits
system.cpu1.dcache.WriteReq_mshr_misses::.cpu1.data       106647                       # number of WriteReq MSHR misses
system.cpu1.dcache.WriteReq_mshr_misses::total       106647                       # number of WriteReq MSHR misses
system.cpu1.dcache.WriteReq_mshr_miss_latency::.cpu1.data   5604137279                       # number of WriteReq MSHR miss cycles
system.cpu1.dcache.WriteReq_mshr_miss_latency::total   5604137279                       # number of WriteReq MSHR miss cycles
system.cpu1.dcache.WriteReq_mshr_miss_rate::.cpu1.data     0.029064                       # mshr miss rate for WriteReq accesses
system.cpu1.dcache.WriteReq_mshr_miss_rate::total     0.029064                       # mshr miss rate for WriteReq accesses
system.cpu1.dcache.WriteReq_avg_mshr_miss_latency::.cpu1.data 52548.475616                       # average WriteReq mshr miss latency
system.cpu1.dcache.WriteReq_avg_mshr_miss_latency::total 52548.475616                       # average WriteReq mshr miss latency
system.cpu1.dcache.LoadLockedReq_hits::.cpu1.data          692                       # number of LoadLockedReq hits
system.cpu1.dcache.LoadLockedReq_hits::total          692                       # number of LoadLockedReq hits
system.cpu1.dcache.LoadLockedReq_misses::.cpu1.data          137                       # number of LoadLockedReq misses
system.cpu1.dcache.LoadLockedReq_misses::total          137                       # number of LoadLockedReq misses
system.cpu1.dcache.LoadLockedReq_miss_latency::.cpu1.data     12564500                       # number of LoadLockedReq miss cycles
system.cpu1.dcache.LoadLockedReq_miss_latency::total     12564500                       # number of LoadLockedReq miss cycles
system.cpu1.dcache.LoadLockedReq_accesses::.cpu1.data          829                       # number of LoadLockedReq accesses(hits+misses)
system.cpu1.dcache.LoadLockedReq_accesses::total          829                       # number of LoadLockedReq accesses(hits+misses)
system.cpu1.dcache.LoadLockedReq_miss_rate::.cpu1.data     0.165259                       # miss rate for LoadLockedReq accesses
system.cpu1.dcache.LoadLockedReq_miss_rate::total     0.165259                       # miss rate for LoadLockedReq accesses
system.cpu1.dcache.LoadLockedReq_avg_miss_latency::.cpu1.data 91711.678832                       # average LoadLockedReq miss latency
system.cpu1.dcache.LoadLockedReq_avg_miss_latency::total 91711.678832                       # average LoadLockedReq miss latency
system.cpu1.dcache.LoadLockedReq_mshr_hits::.cpu1.data           54                       # number of LoadLockedReq MSHR hits
system.cpu1.dcache.LoadLockedReq_mshr_hits::total           54                       # number of LoadLockedReq MSHR hits
system.cpu1.dcache.LoadLockedReq_mshr_misses::.cpu1.data           83                       # number of LoadLockedReq MSHR misses
system.cpu1.dcache.LoadLockedReq_mshr_misses::total           83                       # number of LoadLockedReq MSHR misses
system.cpu1.dcache.LoadLockedReq_mshr_miss_latency::.cpu1.data      6506500                       # number of LoadLockedReq MSHR miss cycles
system.cpu1.dcache.LoadLockedReq_mshr_miss_latency::total      6506500                       # number of LoadLockedReq MSHR miss cycles
system.cpu1.dcache.LoadLockedReq_mshr_miss_rate::.cpu1.data     0.100121                       # mshr miss rate for LoadLockedReq accesses
system.cpu1.dcache.LoadLockedReq_mshr_miss_rate::total     0.100121                       # mshr miss rate for LoadLockedReq accesses
system.cpu1.dcache.LoadLockedReq_avg_mshr_miss_latency::.cpu1.data 78391.566265                       # average LoadLockedReq mshr miss latency
system.cpu1.dcache.LoadLockedReq_avg_mshr_miss_latency::total 78391.566265                       # average LoadLockedReq mshr miss latency
system.cpu1.dcache.StoreCondReq_hits::.cpu1.data          599                       # number of StoreCondReq hits
system.cpu1.dcache.StoreCondReq_hits::total          599                       # number of StoreCondReq hits
system.cpu1.dcache.StoreCondReq_misses::.cpu1.data          200                       # number of StoreCondReq misses
system.cpu1.dcache.StoreCondReq_misses::total          200                       # number of StoreCondReq misses
system.cpu1.dcache.StoreCondReq_miss_latency::.cpu1.data      1136500                       # number of StoreCondReq miss cycles
system.cpu1.dcache.StoreCondReq_miss_latency::total      1136500                       # number of StoreCondReq miss cycles
system.cpu1.dcache.StoreCondReq_accesses::.cpu1.data          799                       # number of StoreCondReq accesses(hits+misses)
system.cpu1.dcache.StoreCondReq_accesses::total          799                       # number of StoreCondReq accesses(hits+misses)
system.cpu1.dcache.StoreCondReq_miss_rate::.cpu1.data     0.250313                       # miss rate for StoreCondReq accesses
system.cpu1.dcache.StoreCondReq_miss_rate::total     0.250313                       # miss rate for StoreCondReq accesses
system.cpu1.dcache.StoreCondReq_avg_miss_latency::.cpu1.data  5682.500000                       # average StoreCondReq miss latency
system.cpu1.dcache.StoreCondReq_avg_miss_latency::total  5682.500000                       # average StoreCondReq miss latency
system.cpu1.dcache.StoreCondReq_mshr_misses::.cpu1.data          200                       # number of StoreCondReq MSHR misses
system.cpu1.dcache.StoreCondReq_mshr_misses::total          200                       # number of StoreCondReq MSHR misses
system.cpu1.dcache.StoreCondReq_mshr_miss_latency::.cpu1.data       936500                       # number of StoreCondReq MSHR miss cycles
system.cpu1.dcache.StoreCondReq_mshr_miss_latency::total       936500                       # number of StoreCondReq MSHR miss cycles
system.cpu1.dcache.StoreCondReq_mshr_miss_rate::.cpu1.data     0.250313                       # mshr miss rate for StoreCondReq accesses
system.cpu1.dcache.StoreCondReq_mshr_miss_rate::total     0.250313                       # mshr miss rate for StoreCondReq accesses
system.cpu1.dcache.StoreCondReq_avg_mshr_miss_latency::.cpu1.data  4682.500000                       # average StoreCondReq mshr miss latency
system.cpu1.dcache.StoreCondReq_avg_mshr_miss_latency::total  4682.500000                       # average StoreCondReq mshr miss latency
system.cpu1.dcache.SwapReq_hits::.cpu1.data          315                       # number of SwapReq hits
system.cpu1.dcache.SwapReq_hits::total            315                       # number of SwapReq hits
system.cpu1.dcache.SwapReq_misses::.cpu1.data          141                       # number of SwapReq misses
system.cpu1.dcache.SwapReq_misses::total          141                       # number of SwapReq misses
system.cpu1.dcache.SwapReq_miss_latency::.cpu1.data       627500                       # number of SwapReq miss cycles
system.cpu1.dcache.SwapReq_miss_latency::total       627500                       # number of SwapReq miss cycles
system.cpu1.dcache.SwapReq_accesses::.cpu1.data          456                       # number of SwapReq accesses(hits+misses)
system.cpu1.dcache.SwapReq_accesses::total          456                       # number of SwapReq accesses(hits+misses)
system.cpu1.dcache.SwapReq_miss_rate::.cpu1.data     0.309211                       # miss rate for SwapReq accesses
system.cpu1.dcache.SwapReq_miss_rate::total     0.309211                       # miss rate for SwapReq accesses
system.cpu1.dcache.SwapReq_avg_miss_latency::.cpu1.data  4450.354610                       # average SwapReq miss latency
system.cpu1.dcache.SwapReq_avg_miss_latency::total  4450.354610                       # average SwapReq miss latency
system.cpu1.dcache.SwapReq_mshr_misses::.cpu1.data          141                       # number of SwapReq MSHR misses
system.cpu1.dcache.SwapReq_mshr_misses::total          141                       # number of SwapReq MSHR misses
system.cpu1.dcache.SwapReq_mshr_miss_latency::.cpu1.data       486500                       # number of SwapReq MSHR miss cycles
system.cpu1.dcache.SwapReq_mshr_miss_latency::total       486500                       # number of SwapReq MSHR miss cycles
system.cpu1.dcache.SwapReq_mshr_miss_rate::.cpu1.data     0.309211                       # mshr miss rate for SwapReq accesses
system.cpu1.dcache.SwapReq_mshr_miss_rate::total     0.309211                       # mshr miss rate for SwapReq accesses
system.cpu1.dcache.SwapReq_avg_mshr_miss_latency::.cpu1.data  3450.354610                       # average SwapReq mshr miss latency
system.cpu1.dcache.SwapReq_avg_mshr_miss_latency::total  3450.354610                       # average SwapReq mshr miss latency
system.cpu1.dcache.tags.pwrStateResidencyTicks::UNDEFINED 1041826318000                       # Cumulative time (in ticks) in various power states
system.cpu1.dcache.tags.tagsinuse           31.996123                       # Cycle average of tags in use
system.cpu1.dcache.tags.total_refs           70819074                       # Total number of references to valid blocks.
system.cpu1.dcache.tags.sampled_refs          8150635                       # Sample count of references to valid blocks.
system.cpu1.dcache.tags.avg_refs             8.688780                       # Average number of references to valid blocks.
system.cpu1.dcache.tags.warmup_cycle                0                       # Cycle when the warmup percentage was hit.
system.cpu1.dcache.tags.occ_blocks::.cpu1.data    31.996123                       # Average occupied blocks per requestor
system.cpu1.dcache.tags.occ_percent::.cpu1.data     0.999879                       # Average percentage of cache occupancy
system.cpu1.dcache.tags.occ_percent::total     0.999879                       # Average percentage of cache occupancy
system.cpu1.dcache.tags.occ_task_id_blocks::1024           29                       # Occupied blocks per task id
system.cpu1.dcache.tags.age_task_id_blocks_1024::1           29                       # Occupied blocks per task id
system.cpu1.dcache.tags.occ_task_id_percent::1024     0.906250                       # Percentage of cache occupancy per task id
system.cpu1.dcache.tags.tag_accesses        167098527                       # Number of tag accesses
system.cpu1.dcache.tags.data_accesses       167098527                       # Number of data accesses
system.cpu_clk_domain.clock                       500                       # Clock period in ticks
system.tol2bus.pwrStateResidencyTicks::UNDEFINED 1041826318000                       # Cumulative time (in ticks) in various power states
system.tol2bus.trans_dist::ReadResp          47690938                       # Transaction distribution
system.tol2bus.trans_dist::WritebackDirty      2441102                       # Transaction distribution
system.tol2bus.trans_dist::WritebackClean     46606463                       # Transaction distribution
system.tol2bus.trans_dist::CleanEvict       115042462                       # Transaction distribution
system.tol2bus.trans_dist::HardPFReq         66197394                       # Transaction distribution
system.tol2bus.trans_dist::HardPFResp               3                       # Transaction distribution
system.tol2bus.trans_dist::UpgradeReq            2270                       # Transaction distribution
system.tol2bus.trans_dist::SCUpgradeReq           443                       # Transaction distribution
system.tol2bus.trans_dist::UpgradeResp           2713                       # Transaction distribution
system.tol2bus.trans_dist::ReadExReq           211449                       # Transaction distribution
system.tol2bus.trans_dist::ReadExResp          211449                       # Transaction distribution
system.tol2bus.trans_dist::ReadCleanReq         17864                       # Transaction distribution
system.tol2bus.trans_dist::ReadSharedReq     47673075                       # Transaction distribution
system.tol2bus.pkt_count_system.cpu0.icache.mem_side::system.l2.cpu_side        45976                       # Packet count per connected master and slave (bytes)
system.tol2bus.pkt_count_system.cpu0.dcache.mem_side::system.l2.cpu_side    119203662                       # Packet count per connected master and slave (bytes)
system.tol2bus.pkt_count_system.cpu1.icache.mem_side::system.l2.cpu_side         7614                       # Packet count per connected master and slave (bytes)
system.tol2bus.pkt_count_system.cpu1.dcache.mem_side::system.l2.cpu_side     24448584                       # Packet count per connected master and slave (bytes)
system.tol2bus.pkt_count::total             143705836                       # Packet count per connected master and slave (bytes)
system.tol2bus.pkt_size_system.cpu0.icache.mem_side::system.l2.cpu_side      1961600                       # Cumulative packet size per connected master and slave (bytes)
system.tol2bus.pkt_size_system.cpu0.dcache.mem_side::system.l2.cpu_side   5085835776                       # Cumulative packet size per connected master and slave (bytes)
system.tol2bus.pkt_size_system.cpu1.icache.mem_side::system.l2.cpu_side       324864                       # Cumulative packet size per connected master and slave (bytes)
system.tol2bus.pkt_size_system.cpu1.dcache.mem_side::system.l2.cpu_side   1043031040                       # Cumulative packet size per connected master and slave (bytes)
system.tol2bus.pkt_size::total             6131153280                       # Cumulative packet size per connected master and slave (bytes)
system.tol2bus.snoops                       182391792                       # Total snoops (count)
system.tol2bus.snoopTraffic                  73644032                       # Total snoop traffic (bytes)
system.tol2bus.snoop_fanout::samples        230321730                       # Request fanout histogram
system.tol2bus.snoop_fanout::mean            0.154257                       # Request fanout histogram
system.tol2bus.snoop_fanout::stdev           0.368035                       # Request fanout histogram
system.tol2bus.snoop_fanout::underflows             0      0.00%      0.00% # Request fanout histogram
system.tol2bus.snoop_fanout::0              195367342     84.82%     84.82% # Request fanout histogram
system.tol2bus.snoop_fanout::1               34380008     14.93%     99.75% # Request fanout histogram
system.tol2bus.snoop_fanout::2                 574380      0.25%    100.00% # Request fanout histogram
system.tol2bus.snoop_fanout::3                      0      0.00%    100.00% # Request fanout histogram
system.tol2bus.snoop_fanout::4                      0      0.00%    100.00% # Request fanout histogram
system.tol2bus.snoop_fanout::5                      0      0.00%    100.00% # Request fanout histogram
system.tol2bus.snoop_fanout::6                      0      0.00%    100.00% # Request fanout histogram
system.tol2bus.snoop_fanout::7                      0      0.00%    100.00% # Request fanout histogram
system.tol2bus.snoop_fanout::8                      0      0.00%    100.00% # Request fanout histogram
system.tol2bus.snoop_fanout::overflows              0      0.00%    100.00% # Request fanout histogram
system.tol2bus.snoop_fanout::min_value              0                       # Request fanout histogram
system.tol2bus.snoop_fanout::max_value              2                       # Request fanout histogram
system.tol2bus.snoop_fanout::total          230321730                       # Request fanout histogram
system.tol2bus.reqLayer0.occupancy        95863248761                       # Layer occupancy (ticks)
system.tol2bus.reqLayer0.utilization              9.2                       # Layer utilization (%)
system.tol2bus.respLayer1.occupancy       59617034762                       # Layer occupancy (ticks)
system.tol2bus.respLayer1.utilization             5.7                       # Layer utilization (%)
system.tol2bus.respLayer0.occupancy          23000973                       # Layer occupancy (ticks)
system.tol2bus.respLayer0.utilization             0.0                       # Layer utilization (%)
system.tol2bus.respLayer3.occupancy       12233621621                       # Layer occupancy (ticks)
system.tol2bus.respLayer3.utilization             1.2                       # Layer utilization (%)
system.tol2bus.respLayer2.occupancy           3812988                       # Layer occupancy (ticks)
system.tol2bus.respLayer2.utilization             0.0                       # Layer utilization (%)
system.tol2bus.snoopLayer0.occupancy             4500                       # Layer occupancy (ticks)
system.tol2bus.snoopLayer0.utilization            0.0                       # Layer utilization (%)

---------- End Simulation Statistics   ----------
