
---------- Begin Simulation Statistics ----------
final_tick                               951567179000                       # Number of ticks from beginning of simulation (restored from checkpoints and never reset)
host_inst_rate                                  85919                       # Simulator instruction rate (inst/s)
host_mem_usage                                 740100                       # Number of bytes of host memory used
host_op_rate                                    86200                       # Simulator op (including micro ops) rate (op/s)
host_seconds                                 12912.16                       # Real time elapsed on the host
host_tick_rate                               73695411                       # Simulator tick rate (ticks/s)
sim_freq                                 1000000000000                       # Frequency of simulated ticks
sim_insts                                  1109401821                       # Number of instructions simulated
sim_ops                                    1113028382                       # Number of ops (including micro ops) simulated
sim_seconds                                  0.951567                       # Number of seconds simulated
sim_ticks                                951567179000                       # Number of ticks simulated
system.cpu0.branchPred.BTBCorrect                   0                       # Number of correct BTB predictions (this stat may not work properly.
system.cpu0.branchPred.BTBHitPct            87.103607                       # BTB Hit Percentage
system.cpu0.branchPred.BTBHits              139497953                       # Number of BTB hits
system.cpu0.branchPred.BTBLookups           160151753                       # Number of BTB lookups
system.cpu0.branchPred.RASInCorrect                 0                       # Number of incorrect RAS predictions.
system.cpu0.branchPred.condIncorrect         17668692                       # Number of conditional branches incorrect
system.cpu0.branchPred.condPredicted        217394688                       # Number of conditional branches predicted
system.cpu0.branchPred.indirectHits          18251119                       # Number of indirect target hits.
system.cpu0.branchPred.indirectLookups       18583069                       # Number of indirect predictor lookups.
system.cpu0.branchPred.indirectMisses          331950                       # Number of indirect misses.
system.cpu0.branchPred.lookups              277525037                       # Number of BP lookups
system.cpu0.branchPred.usedRAS                      0                       # Number of times the RAS was used to get a target.
system.cpu0.branchPredindirectMispredicted      1850915                       # Number of mispredicted indirect branches.
system.cpu0.commit.amos                        906060                       # Number of atomic instructions committed
system.cpu0.commit.branchMispredicts         10929422                       # The number of times a branch was mispredicted
system.cpu0.commit.branches                 252679878                       # Number of branches committed
system.cpu0.commit.bw_lim_events             31449083                       # number cycles where commit BW limit reached
system.cpu0.commit.commitNonSpecStalls        2725493                       # The number of times commit has been forced to stall to communicate backwards
system.cpu0.commit.commitSquashedInsts       79093242                       # The number of squashed insts skipped by commit
system.cpu0.commit.committedInsts          1016665539                       # Number of instructions committed
system.cpu0.commit.committedOps            1017574119                       # Number of ops (including micro ops) committed
system.cpu0.commit.committed_per_cycle::samples   1711524122                       # Number of insts commited each cycle
system.cpu0.commit.committed_per_cycle::mean     0.594543                       # Number of insts commited each cycle
system.cpu0.commit.committed_per_cycle::stdev     1.387916                       # Number of insts commited each cycle
system.cpu0.commit.committed_per_cycle::underflows            0      0.00%      0.00% # Number of insts commited each cycle
system.cpu0.commit.committed_per_cycle::0   1227327440     71.71%     71.71% # Number of insts commited each cycle
system.cpu0.commit.committed_per_cycle::1    289537939     16.92%     88.63% # Number of insts commited each cycle
system.cpu0.commit.committed_per_cycle::2     69873248      4.08%     92.71% # Number of insts commited each cycle
system.cpu0.commit.committed_per_cycle::3     61475959      3.59%     96.30% # Number of insts commited each cycle
system.cpu0.commit.committed_per_cycle::4     19279747      1.13%     97.43% # Number of insts commited each cycle
system.cpu0.commit.committed_per_cycle::5      4911956      0.29%     97.71% # Number of insts commited each cycle
system.cpu0.commit.committed_per_cycle::6      3090875      0.18%     97.90% # Number of insts commited each cycle
system.cpu0.commit.committed_per_cycle::7      4577875      0.27%     98.16% # Number of insts commited each cycle
system.cpu0.commit.committed_per_cycle::8     31449083      1.84%    100.00% # Number of insts commited each cycle
system.cpu0.commit.committed_per_cycle::overflows            0      0.00%    100.00% # Number of insts commited each cycle
system.cpu0.commit.committed_per_cycle::min_value            0                       # Number of insts commited each cycle
system.cpu0.commit.committed_per_cycle::max_value            8                       # Number of insts commited each cycle
system.cpu0.commit.committed_per_cycle::total   1711524122                       # Number of insts commited each cycle
system.cpu0.commit.fp_insts                        65                       # Number of committed floating point instructions.
system.cpu0.commit.function_calls            20546492                       # Number of function calls committed.
system.cpu0.commit.int_insts                983064360                       # Number of committed integer instructions.
system.cpu0.commit.loads                    316457291                       # Number of loads committed
system.cpu0.commit.membars                    1814497                       # Number of memory barriers committed
system.cpu0.commit.op_class_0::No_OpClass      1814506      0.18%      0.18% # Class of committed instruction
system.cpu0.commit.op_class_0::IntAlu       563709796     55.40%     55.58% # Class of committed instruction
system.cpu0.commit.op_class_0::IntMult        8030469      0.79%     56.36% # Class of committed instruction
system.cpu0.commit.op_class_0::IntDiv         1811041      0.18%     56.54% # Class of committed instruction
system.cpu0.commit.op_class_0::FloatAdd             0      0.00%     56.54% # Class of committed instruction
system.cpu0.commit.op_class_0::FloatCmp             6      0.00%     56.54% # Class of committed instruction
system.cpu0.commit.op_class_0::FloatCvt            16      0.00%     56.54% # Class of committed instruction
system.cpu0.commit.op_class_0::FloatMult            0      0.00%     56.54% # Class of committed instruction
system.cpu0.commit.op_class_0::FloatMultAcc            0      0.00%     56.54% # Class of committed instruction
system.cpu0.commit.op_class_0::FloatDiv             2      0.00%     56.54% # Class of committed instruction
system.cpu0.commit.op_class_0::FloatMisc            6      0.00%     56.54% # Class of committed instruction
system.cpu0.commit.op_class_0::FloatSqrt            0      0.00%     56.54% # Class of committed instruction
system.cpu0.commit.op_class_0::SimdAdd              0      0.00%     56.54% # Class of committed instruction
system.cpu0.commit.op_class_0::SimdAddAcc            0      0.00%     56.54% # Class of committed instruction
system.cpu0.commit.op_class_0::SimdAlu              0      0.00%     56.54% # Class of committed instruction
system.cpu0.commit.op_class_0::SimdCmp              0      0.00%     56.54% # Class of committed instruction
system.cpu0.commit.op_class_0::SimdCvt              0      0.00%     56.54% # Class of committed instruction
system.cpu0.commit.op_class_0::SimdMisc             0      0.00%     56.54% # Class of committed instruction
system.cpu0.commit.op_class_0::SimdMult             0      0.00%     56.54% # Class of committed instruction
system.cpu0.commit.op_class_0::SimdMultAcc            0      0.00%     56.54% # Class of committed instruction
system.cpu0.commit.op_class_0::SimdShift            0      0.00%     56.54% # Class of committed instruction
system.cpu0.commit.op_class_0::SimdShiftAcc            0      0.00%     56.54% # Class of committed instruction
system.cpu0.commit.op_class_0::SimdDiv              0      0.00%     56.54% # Class of committed instruction
system.cpu0.commit.op_class_0::SimdSqrt             0      0.00%     56.54% # Class of committed instruction
system.cpu0.commit.op_class_0::SimdFloatAdd            0      0.00%     56.54% # Class of committed instruction
system.cpu0.commit.op_class_0::SimdFloatAlu            0      0.00%     56.54% # Class of committed instruction
system.cpu0.commit.op_class_0::SimdFloatCmp            0      0.00%     56.54% # Class of committed instruction
system.cpu0.commit.op_class_0::SimdFloatCvt            0      0.00%     56.54% # Class of committed instruction
system.cpu0.commit.op_class_0::SimdFloatDiv            0      0.00%     56.54% # Class of committed instruction
system.cpu0.commit.op_class_0::SimdFloatMisc            0      0.00%     56.54% # Class of committed instruction
system.cpu0.commit.op_class_0::SimdFloatMult            0      0.00%     56.54% # Class of committed instruction
system.cpu0.commit.op_class_0::SimdFloatMultAcc            0      0.00%     56.54% # Class of committed instruction
system.cpu0.commit.op_class_0::SimdFloatSqrt            0      0.00%     56.54% # Class of committed instruction
system.cpu0.commit.op_class_0::SimdReduceAdd            0      0.00%     56.54% # Class of committed instruction
system.cpu0.commit.op_class_0::SimdReduceAlu            0      0.00%     56.54% # Class of committed instruction
system.cpu0.commit.op_class_0::SimdReduceCmp            0      0.00%     56.54% # Class of committed instruction
system.cpu0.commit.op_class_0::SimdFloatReduceAdd            0      0.00%     56.54% # Class of committed instruction
system.cpu0.commit.op_class_0::SimdFloatReduceCmp            0      0.00%     56.54% # Class of committed instruction
system.cpu0.commit.op_class_0::SimdAes              0      0.00%     56.54% # Class of committed instruction
system.cpu0.commit.op_class_0::SimdAesMix            0      0.00%     56.54% # Class of committed instruction
system.cpu0.commit.op_class_0::SimdSha1Hash            0      0.00%     56.54% # Class of committed instruction
system.cpu0.commit.op_class_0::SimdSha1Hash2            0      0.00%     56.54% # Class of committed instruction
system.cpu0.commit.op_class_0::SimdSha256Hash            0      0.00%     56.54% # Class of committed instruction
system.cpu0.commit.op_class_0::SimdSha256Hash2            0      0.00%     56.54% # Class of committed instruction
system.cpu0.commit.op_class_0::SimdShaSigma2            0      0.00%     56.54% # Class of committed instruction
system.cpu0.commit.op_class_0::SimdShaSigma3            0      0.00%     56.54% # Class of committed instruction
system.cpu0.commit.op_class_0::SimdPredAlu            0      0.00%     56.54% # Class of committed instruction
system.cpu0.commit.op_class_0::MemRead      317363339     31.19%     87.73% # Class of committed instruction
system.cpu0.commit.op_class_0::MemWrite     124844903     12.27%    100.00% # Class of committed instruction
system.cpu0.commit.op_class_0::FloatMemRead           12      0.00%    100.00% # Class of committed instruction
system.cpu0.commit.op_class_0::FloatMemWrite           23      0.00%    100.00% # Class of committed instruction
system.cpu0.commit.op_class_0::IprAccess            0      0.00%    100.00% # Class of committed instruction
system.cpu0.commit.op_class_0::InstPrefetch            0      0.00%    100.00% # Class of committed instruction
system.cpu0.commit.op_class_0::total       1017574119                       # Class of committed instruction
system.cpu0.commit.refs                     442208277                       # Number of memory references committed
system.cpu0.commit.swp_count                        0                       # Number of s/w prefetches committed
system.cpu0.commit.vec_insts                        0                       # Number of committed Vector instructions.
system.cpu0.committedInsts                 1016665539                       # Number of Instructions Simulated
system.cpu0.committedOps                   1017574119                       # Number of Ops (including micro ops) Simulated
system.cpu0.cpi                              1.852259                       # CPI: Cycles Per Instruction
system.cpu0.cpi_total                        1.852259                       # CPI: Total CPI of All Threads
system.cpu0.decode.BlockedCycles            166777870                       # Number of cycles decode is blocked
system.cpu0.decode.BranchMispred              6743063                       # Number of times decode detected a branch misprediction
system.cpu0.decode.BranchResolved           138087149                       # Number of times decode resolved a branch
system.cpu0.decode.DecodedInsts            1129170679                       # Number of instructions handled by decode
system.cpu0.decode.IdleCycles               740426703                       # Number of cycles decode is idle
system.cpu0.decode.RunCycles                808056032                       # Number of cycles decode is running
system.cpu0.decode.SquashCycles              10940984                       # Number of cycles decode is squashing
system.cpu0.decode.SquashedInsts             16293602                       # Number of squashed instructions handled by decode
system.cpu0.decode.UnblockCycles              3655262                       # Number of cycles decode is unblocking
system.cpu0.dtb.accesses                            0                       # DTB accesses
system.cpu0.dtb.hits                                0                       # DTB hits
system.cpu0.dtb.misses                              0                       # DTB misses
system.cpu0.dtb.read_accesses                       0                       # DTB read accesses
system.cpu0.dtb.read_hits                           0                       # DTB read hits
system.cpu0.dtb.read_misses                         0                       # DTB read misses
system.cpu0.dtb.write_accesses                      0                       # DTB write accesses
system.cpu0.dtb.write_hits                          0                       # DTB write hits
system.cpu0.dtb.write_misses                        0                       # DTB write misses
system.cpu0.fetch.Branches                  277525037                       # Number of branches that fetch encountered
system.cpu0.fetch.CacheLines                203382823                       # Number of cache lines fetched
system.cpu0.fetch.Cycles                    986292296                       # Number of cycles fetch has run and was not squashing or blocked
system.cpu0.fetch.IcacheSquashes              3345280                       # Number of outstanding Icache misses that were squashed
system.cpu0.fetch.IcacheWaitRetryStallCycles           89                       # Number of stall cycles due to full MSHR
system.cpu0.fetch.Insts                    1162487813                       # Number of instructions fetch has processed
system.cpu0.fetch.MiscStallCycles                 133                       # Number of cycles fetch has spent waiting on interrupts, or bad addresses, or out of MSHRs
system.cpu0.fetch.PendingTrapStallCycles          244                       # Number of stall cycles due to pending traps
system.cpu0.fetch.SquashCycles               35360584                       # Number of cycles fetch has spent squashing
system.cpu0.fetch.branchRate                 0.147375                       # Number of branch fetches per cycle
system.cpu0.fetch.icacheStallCycles         725883797                       # Number of cycles fetch is stalled on an Icache miss
system.cpu0.fetch.predictedBranches         157749072                       # Number of branches that fetch has predicted taken
system.cpu0.fetch.rate                       0.617318                       # Number of inst fetches per cycle
system.cpu0.fetch.rateDist::samples        1729856851                       # Number of instructions fetched each cycle (Total)
system.cpu0.fetch.rateDist::mean             0.674040                       # Number of instructions fetched each cycle (Total)
system.cpu0.fetch.rateDist::stdev            0.899363                       # Number of instructions fetched each cycle (Total)
system.cpu0.fetch.rateDist::underflows              0      0.00%      0.00% # Number of instructions fetched each cycle (Total)
system.cpu0.fetch.rateDist::0               892882759     51.62%     51.62% # Number of instructions fetched each cycle (Total)
system.cpu0.fetch.rateDist::1               627531206     36.28%     87.89% # Number of instructions fetched each cycle (Total)
system.cpu0.fetch.rateDist::2               127237598      7.36%     95.25% # Number of instructions fetched each cycle (Total)
system.cpu0.fetch.rateDist::3                60871673      3.52%     98.77% # Number of instructions fetched each cycle (Total)
system.cpu0.fetch.rateDist::4                10780190      0.62%     99.39% # Number of instructions fetched each cycle (Total)
system.cpu0.fetch.rateDist::5                 7066398      0.41%     99.80% # Number of instructions fetched each cycle (Total)
system.cpu0.fetch.rateDist::6                 1581036      0.09%     99.89% # Number of instructions fetched each cycle (Total)
system.cpu0.fetch.rateDist::7                 1816383      0.11%     99.99% # Number of instructions fetched each cycle (Total)
system.cpu0.fetch.rateDist::8                   89608      0.01%    100.00% # Number of instructions fetched each cycle (Total)
system.cpu0.fetch.rateDist::overflows               0      0.00%    100.00% # Number of instructions fetched each cycle (Total)
system.cpu0.fetch.rateDist::min_value               0                       # Number of instructions fetched each cycle (Total)
system.cpu0.fetch.rateDist::max_value               8                       # Number of instructions fetched each cycle (Total)
system.cpu0.fetch.rateDist::total          1729856851                       # Number of instructions fetched each cycle (Total)
system.cpu0.fp_regfile_reads                       56                       # number of floating regfile reads
system.cpu0.fp_regfile_writes                      33                       # number of floating regfile writes
system.cpu0.idleCycles                      153271027                       # Total number of cycles that the CPU has spent unscheduled due to idling
system.cpu0.iew.branchMispredicts            10998376                       # Number of branch mispredicts detected at execute
system.cpu0.iew.exec_branches               262429671                       # Number of branches executed
system.cpu0.iew.exec_nop                            0                       # number of nop insts executed
system.cpu0.iew.exec_rate                    0.567473                       # Inst execution rate
system.cpu0.iew.exec_refs                   472193500                       # number of memory reference insts executed
system.cpu0.iew.exec_stores                 130076606                       # Number of stores executed
system.cpu0.iew.exec_swp                            0                       # number of swp insts executed
system.cpu0.iew.iewBlockCycles              142875598                       # Number of cycles IEW is blocking
system.cpu0.iew.iewDispLoadInsts            349525652                       # Number of dispatched load instructions
system.cpu0.iew.iewDispNonSpecInsts           2114310                       # Number of dispatched non-speculative instructions
system.cpu0.iew.iewDispSquashedInsts          7352923                       # Number of squashed instructions skipped by dispatch
system.cpu0.iew.iewDispStoreInsts           133592089                       # Number of dispatched store instructions
system.cpu0.iew.iewDispatchedInsts         1096646423                       # Number of instructions dispatched to IQ
system.cpu0.iew.iewExecLoadInsts            342116894                       # Number of load instructions executed
system.cpu0.iew.iewExecSquashedInsts          5752335                       # Number of squashed instructions skipped in execute
system.cpu0.iew.iewExecutedInsts           1068623929                       # Number of executed instructions
system.cpu0.iew.iewIQFullEvents               1052176                       # Number of times the IQ has become full, causing a stall
system.cpu0.iew.iewIdleCycles                       0                       # Number of cycles IEW is idle
system.cpu0.iew.iewLSQFullEvents              2803937                       # Number of times the LSQ has become full, causing a stall
system.cpu0.iew.iewSquashCycles              10940984                       # Number of cycles IEW is squashing
system.cpu0.iew.iewUnblockCycles              4827637                       # Number of cycles IEW is unblocking
system.cpu0.iew.lsq.thread0.blockedLoads            0                       # Number of blocked loads due to partial load-store forwarding
system.cpu0.iew.lsq.thread0.cacheBlocked        77010                       # Number of times an access to memory failed due to the cache being blocked
system.cpu0.iew.lsq.thread0.forwLoads        19547972                       # Number of loads that had data forwarded from stores
system.cpu0.iew.lsq.thread0.ignoredResponses        38957                       # Number of memory responses ignored because the instruction is squashed
system.cpu0.iew.lsq.thread0.invAddrLoads            0                       # Number of loads ignored due to an invalid address
system.cpu0.iew.lsq.thread0.invAddrSwpfs            0                       # Number of software prefetches ignored due to an invalid address
system.cpu0.iew.lsq.thread0.memOrderViolation        11869                       # Number of memory ordering violations
system.cpu0.iew.lsq.thread0.rescheduledLoads      3901387                       # Number of loads that were rescheduled
system.cpu0.iew.lsq.thread0.squashedLoads     33068361                       # Number of loads squashed
system.cpu0.iew.lsq.thread0.squashedStores      7841103                       # Number of stores squashed
system.cpu0.iew.memOrderViolationEvents         11869                       # Number of memory order violations
system.cpu0.iew.predictedNotTakenIncorrect      1349044                       # Number of branches that were predicted not taken incorrectly
system.cpu0.iew.predictedTakenIncorrect       9649332                       # Number of branches that were predicted taken incorrectly
system.cpu0.iew.wb_consumers                446148540                       # num instructions consuming a value
system.cpu0.iew.wb_count                   1060386422                       # cumulative count of insts written-back
system.cpu0.iew.wb_fanout                    0.851195                       # average fanout of values written-back
system.cpu0.iew.wb_producers                379759191                       # num instructions producing a value
system.cpu0.iew.wb_rate                      0.563098                       # insts written-back per cycle
system.cpu0.iew.wb_sent                    1060439061                       # cumulative count of insts sent to commit
system.cpu0.int_regfile_reads              1304550773                       # number of integer regfile reads
system.cpu0.int_regfile_writes              676456501                       # number of integer regfile writes
system.cpu0.ipc                              0.539881                       # IPC: Instructions Per Cycle
system.cpu0.ipc_total                        0.539881                       # IPC: Total IPC of All Threads
system.cpu0.iq.FU_type_0::No_OpClass          1816192      0.17%      0.17% # Type of FU issued
system.cpu0.iq.FU_type_0::IntAlu            587664785     54.70%     54.87% # Type of FU issued
system.cpu0.iq.FU_type_0::IntMult             8035142      0.75%     55.62% # Type of FU issued
system.cpu0.iq.FU_type_0::IntDiv              1811525      0.17%     55.78% # Type of FU issued
system.cpu0.iq.FU_type_0::FloatAdd                  0      0.00%     55.78% # Type of FU issued
system.cpu0.iq.FU_type_0::FloatCmp                  6      0.00%     55.78% # Type of FU issued
system.cpu0.iq.FU_type_0::FloatCvt                 16      0.00%     55.78% # Type of FU issued
system.cpu0.iq.FU_type_0::FloatMult                 0      0.00%     55.78% # Type of FU issued
system.cpu0.iq.FU_type_0::FloatMultAcc              0      0.00%     55.78% # Type of FU issued
system.cpu0.iq.FU_type_0::FloatDiv                  2      0.00%     55.78% # Type of FU issued
system.cpu0.iq.FU_type_0::FloatMisc                 6      0.00%     55.78% # Type of FU issued
system.cpu0.iq.FU_type_0::FloatSqrt                 0      0.00%     55.78% # Type of FU issued
system.cpu0.iq.FU_type_0::SimdAdd                   0      0.00%     55.78% # Type of FU issued
system.cpu0.iq.FU_type_0::SimdAddAcc                0      0.00%     55.78% # Type of FU issued
system.cpu0.iq.FU_type_0::SimdAlu                   0      0.00%     55.78% # Type of FU issued
system.cpu0.iq.FU_type_0::SimdCmp                   0      0.00%     55.78% # Type of FU issued
system.cpu0.iq.FU_type_0::SimdCvt                   0      0.00%     55.78% # Type of FU issued
system.cpu0.iq.FU_type_0::SimdMisc                  0      0.00%     55.78% # Type of FU issued
system.cpu0.iq.FU_type_0::SimdMult                  0      0.00%     55.78% # Type of FU issued
system.cpu0.iq.FU_type_0::SimdMultAcc               0      0.00%     55.78% # Type of FU issued
system.cpu0.iq.FU_type_0::SimdShift                 0      0.00%     55.78% # Type of FU issued
system.cpu0.iq.FU_type_0::SimdShiftAcc              0      0.00%     55.78% # Type of FU issued
system.cpu0.iq.FU_type_0::SimdDiv                   0      0.00%     55.78% # Type of FU issued
system.cpu0.iq.FU_type_0::SimdSqrt                  0      0.00%     55.78% # Type of FU issued
system.cpu0.iq.FU_type_0::SimdFloatAdd              0      0.00%     55.78% # Type of FU issued
system.cpu0.iq.FU_type_0::SimdFloatAlu              0      0.00%     55.78% # Type of FU issued
system.cpu0.iq.FU_type_0::SimdFloatCmp              0      0.00%     55.78% # Type of FU issued
system.cpu0.iq.FU_type_0::SimdFloatCvt              0      0.00%     55.78% # Type of FU issued
system.cpu0.iq.FU_type_0::SimdFloatDiv              0      0.00%     55.78% # Type of FU issued
system.cpu0.iq.FU_type_0::SimdFloatMisc             0      0.00%     55.78% # Type of FU issued
system.cpu0.iq.FU_type_0::SimdFloatMult             0      0.00%     55.78% # Type of FU issued
system.cpu0.iq.FU_type_0::SimdFloatMultAcc            0      0.00%     55.78% # Type of FU issued
system.cpu0.iq.FU_type_0::SimdFloatSqrt             0      0.00%     55.78% # Type of FU issued
system.cpu0.iq.FU_type_0::SimdReduceAdd             0      0.00%     55.78% # Type of FU issued
system.cpu0.iq.FU_type_0::SimdReduceAlu             0      0.00%     55.78% # Type of FU issued
system.cpu0.iq.FU_type_0::SimdReduceCmp             0      0.00%     55.78% # Type of FU issued
system.cpu0.iq.FU_type_0::SimdFloatReduceAdd            0      0.00%     55.78% # Type of FU issued
system.cpu0.iq.FU_type_0::SimdFloatReduceCmp            0      0.00%     55.78% # Type of FU issued
system.cpu0.iq.FU_type_0::SimdAes                   0      0.00%     55.78% # Type of FU issued
system.cpu0.iq.FU_type_0::SimdAesMix                0      0.00%     55.78% # Type of FU issued
system.cpu0.iq.FU_type_0::SimdSha1Hash              0      0.00%     55.78% # Type of FU issued
system.cpu0.iq.FU_type_0::SimdSha1Hash2             0      0.00%     55.78% # Type of FU issued
system.cpu0.iq.FU_type_0::SimdSha256Hash            0      0.00%     55.78% # Type of FU issued
system.cpu0.iq.FU_type_0::SimdSha256Hash2            0      0.00%     55.78% # Type of FU issued
system.cpu0.iq.FU_type_0::SimdShaSigma2             0      0.00%     55.78% # Type of FU issued
system.cpu0.iq.FU_type_0::SimdShaSigma3             0      0.00%     55.78% # Type of FU issued
system.cpu0.iq.FU_type_0::SimdPredAlu               0      0.00%     55.78% # Type of FU issued
system.cpu0.iq.FU_type_0::MemRead           345415065     32.15%     87.93% # Type of FU issued
system.cpu0.iq.FU_type_0::MemWrite          129633483     12.07%    100.00% # Type of FU issued
system.cpu0.iq.FU_type_0::FloatMemRead             20      0.00%    100.00% # Type of FU issued
system.cpu0.iq.FU_type_0::FloatMemWrite            23      0.00%    100.00% # Type of FU issued
system.cpu0.iq.FU_type_0::IprAccess                 0      0.00%    100.00% # Type of FU issued
system.cpu0.iq.FU_type_0::InstPrefetch              0      0.00%    100.00% # Type of FU issued
system.cpu0.iq.FU_type_0::total            1074376265                       # Type of FU issued
system.cpu0.iq.fp_alu_accesses                     76                       # Number of floating point alu accesses
system.cpu0.iq.fp_inst_queue_reads                149                       # Number of floating instruction queue reads
system.cpu0.iq.fp_inst_queue_wakeup_accesses           67                       # Number of floating instruction queue wakeup accesses
system.cpu0.iq.fp_inst_queue_writes                83                       # Number of floating instruction queue writes
system.cpu0.iq.fu_busy_cnt                    1156201                       # FU busy when requested
system.cpu0.iq.fu_busy_rate                  0.001076                       # FU busy rate (busy events/executed inst)
system.cpu0.iq.fu_full::No_OpClass                  0      0.00%      0.00% # attempts to use FU when none available
system.cpu0.iq.fu_full::IntAlu                 218319     18.88%     18.88% # attempts to use FU when none available
system.cpu0.iq.fu_full::IntMult                     0      0.00%     18.88% # attempts to use FU when none available
system.cpu0.iq.fu_full::IntDiv                      0      0.00%     18.88% # attempts to use FU when none available
system.cpu0.iq.fu_full::FloatAdd                    0      0.00%     18.88% # attempts to use FU when none available
system.cpu0.iq.fu_full::FloatCmp                    0      0.00%     18.88% # attempts to use FU when none available
system.cpu0.iq.fu_full::FloatCvt                    0      0.00%     18.88% # attempts to use FU when none available
system.cpu0.iq.fu_full::FloatMult                   0      0.00%     18.88% # attempts to use FU when none available
system.cpu0.iq.fu_full::FloatMultAcc                0      0.00%     18.88% # attempts to use FU when none available
system.cpu0.iq.fu_full::FloatDiv                    0      0.00%     18.88% # attempts to use FU when none available
system.cpu0.iq.fu_full::FloatMisc                   0      0.00%     18.88% # attempts to use FU when none available
system.cpu0.iq.fu_full::FloatSqrt                   0      0.00%     18.88% # attempts to use FU when none available
system.cpu0.iq.fu_full::SimdAdd                     0      0.00%     18.88% # attempts to use FU when none available
system.cpu0.iq.fu_full::SimdAddAcc                  0      0.00%     18.88% # attempts to use FU when none available
system.cpu0.iq.fu_full::SimdAlu                     0      0.00%     18.88% # attempts to use FU when none available
system.cpu0.iq.fu_full::SimdCmp                     0      0.00%     18.88% # attempts to use FU when none available
system.cpu0.iq.fu_full::SimdCvt                     0      0.00%     18.88% # attempts to use FU when none available
system.cpu0.iq.fu_full::SimdMisc                    0      0.00%     18.88% # attempts to use FU when none available
system.cpu0.iq.fu_full::SimdMult                    0      0.00%     18.88% # attempts to use FU when none available
system.cpu0.iq.fu_full::SimdMultAcc                 0      0.00%     18.88% # attempts to use FU when none available
system.cpu0.iq.fu_full::SimdShift                   0      0.00%     18.88% # attempts to use FU when none available
system.cpu0.iq.fu_full::SimdShiftAcc                0      0.00%     18.88% # attempts to use FU when none available
system.cpu0.iq.fu_full::SimdDiv                     0      0.00%     18.88% # attempts to use FU when none available
system.cpu0.iq.fu_full::SimdSqrt                    0      0.00%     18.88% # attempts to use FU when none available
system.cpu0.iq.fu_full::SimdFloatAdd                0      0.00%     18.88% # attempts to use FU when none available
system.cpu0.iq.fu_full::SimdFloatAlu                0      0.00%     18.88% # attempts to use FU when none available
system.cpu0.iq.fu_full::SimdFloatCmp                0      0.00%     18.88% # attempts to use FU when none available
system.cpu0.iq.fu_full::SimdFloatCvt                0      0.00%     18.88% # attempts to use FU when none available
system.cpu0.iq.fu_full::SimdFloatDiv                0      0.00%     18.88% # attempts to use FU when none available
system.cpu0.iq.fu_full::SimdFloatMisc               0      0.00%     18.88% # attempts to use FU when none available
system.cpu0.iq.fu_full::SimdFloatMult               0      0.00%     18.88% # attempts to use FU when none available
system.cpu0.iq.fu_full::SimdFloatMultAcc            0      0.00%     18.88% # attempts to use FU when none available
system.cpu0.iq.fu_full::SimdFloatSqrt               0      0.00%     18.88% # attempts to use FU when none available
system.cpu0.iq.fu_full::SimdReduceAdd               0      0.00%     18.88% # attempts to use FU when none available
system.cpu0.iq.fu_full::SimdReduceAlu               0      0.00%     18.88% # attempts to use FU when none available
system.cpu0.iq.fu_full::SimdReduceCmp               0      0.00%     18.88% # attempts to use FU when none available
system.cpu0.iq.fu_full::SimdFloatReduceAdd            0      0.00%     18.88% # attempts to use FU when none available
system.cpu0.iq.fu_full::SimdFloatReduceCmp            0      0.00%     18.88% # attempts to use FU when none available
system.cpu0.iq.fu_full::SimdAes                     0      0.00%     18.88% # attempts to use FU when none available
system.cpu0.iq.fu_full::SimdAesMix                  0      0.00%     18.88% # attempts to use FU when none available
system.cpu0.iq.fu_full::SimdSha1Hash                0      0.00%     18.88% # attempts to use FU when none available
system.cpu0.iq.fu_full::SimdSha1Hash2               0      0.00%     18.88% # attempts to use FU when none available
system.cpu0.iq.fu_full::SimdSha256Hash              0      0.00%     18.88% # attempts to use FU when none available
system.cpu0.iq.fu_full::SimdSha256Hash2             0      0.00%     18.88% # attempts to use FU when none available
system.cpu0.iq.fu_full::SimdShaSigma2               0      0.00%     18.88% # attempts to use FU when none available
system.cpu0.iq.fu_full::SimdShaSigma3               0      0.00%     18.88% # attempts to use FU when none available
system.cpu0.iq.fu_full::SimdPredAlu                 0      0.00%     18.88% # attempts to use FU when none available
system.cpu0.iq.fu_full::MemRead                824776     71.34%     90.22% # attempts to use FU when none available
system.cpu0.iq.fu_full::MemWrite               113103      9.78%    100.00% # attempts to use FU when none available
system.cpu0.iq.fu_full::FloatMemRead                0      0.00%    100.00% # attempts to use FU when none available
system.cpu0.iq.fu_full::FloatMemWrite               3      0.00%    100.00% # attempts to use FU when none available
system.cpu0.iq.fu_full::IprAccess                   0      0.00%    100.00% # attempts to use FU when none available
system.cpu0.iq.fu_full::InstPrefetch                0      0.00%    100.00% # attempts to use FU when none available
system.cpu0.iq.int_alu_accesses            1073716198                       # Number of integer alu accesses
system.cpu0.iq.int_inst_queue_reads        3879830006                       # Number of integer instruction queue reads
system.cpu0.iq.int_inst_queue_wakeup_accesses   1060386355                       # Number of integer instruction queue wakeup accesses
system.cpu0.iq.int_inst_queue_writes       1175729544                       # Number of integer instruction queue writes
system.cpu0.iq.iqInstsAdded                1090319961                       # Number of instructions added to the IQ (excludes non-spec)
system.cpu0.iq.iqInstsIssued               1074376265                       # Number of instructions issued
system.cpu0.iq.iqNonSpecInstsAdded            6326462                       # Number of non-speculative instructions added to the IQ
system.cpu0.iq.iqSquashedInstsExamined       79072300                       # Number of squashed instructions iterated over during squash; mainly for profiling
system.cpu0.iq.iqSquashedInstsIssued            64574                       # Number of squashed instructions issued
system.cpu0.iq.iqSquashedNonSpecRemoved       3600969                       # Number of squashed non-spec instructions that were removed
system.cpu0.iq.iqSquashedOperandsExamined     37474858                       # Number of squashed operands that are examined and possibly removed from graph
system.cpu0.iq.issued_per_cycle::samples   1729856851                       # Number of insts issued each cycle
system.cpu0.iq.issued_per_cycle::mean        0.621078                       # Number of insts issued each cycle
system.cpu0.iq.issued_per_cycle::stdev       0.806842                       # Number of insts issued each cycle
system.cpu0.iq.issued_per_cycle::underflows            0      0.00%      0.00% # Number of insts issued each cycle
system.cpu0.iq.issued_per_cycle::0          940110136     54.35%     54.35% # Number of insts issued each cycle
system.cpu0.iq.issued_per_cycle::1          561148811     32.44%     86.79% # Number of insts issued each cycle
system.cpu0.iq.issued_per_cycle::2          186125149     10.76%     97.54% # Number of insts issued each cycle
system.cpu0.iq.issued_per_cycle::3           32919551      1.90%     99.45% # Number of insts issued each cycle
system.cpu0.iq.issued_per_cycle::4            6457175      0.37%     99.82% # Number of insts issued each cycle
system.cpu0.iq.issued_per_cycle::5            2486274      0.14%     99.96% # Number of insts issued each cycle
system.cpu0.iq.issued_per_cycle::6             385256      0.02%     99.99% # Number of insts issued each cycle
system.cpu0.iq.issued_per_cycle::7             149095      0.01%    100.00% # Number of insts issued each cycle
system.cpu0.iq.issued_per_cycle::8              75404      0.00%    100.00% # Number of insts issued each cycle
system.cpu0.iq.issued_per_cycle::overflows            0      0.00%    100.00% # Number of insts issued each cycle
system.cpu0.iq.issued_per_cycle::min_value            0                       # Number of insts issued each cycle
system.cpu0.iq.issued_per_cycle::max_value            8                       # Number of insts issued each cycle
system.cpu0.iq.issued_per_cycle::total     1729856851                       # Number of insts issued each cycle
system.cpu0.iq.rate                          0.570528                       # Inst issue rate
system.cpu0.iq.vec_alu_accesses                     0                       # Number of vector alu accesses
system.cpu0.iq.vec_inst_queue_reads                 0                       # Number of vector instruction queue reads
system.cpu0.iq.vec_inst_queue_wakeup_accesses            0                       # Number of vector instruction queue wakeup accesses
system.cpu0.iq.vec_inst_queue_writes                0                       # Number of vector instruction queue writes
system.cpu0.itb.accesses                            0                       # DTB accesses
system.cpu0.itb.hits                                0                       # DTB hits
system.cpu0.itb.misses                              0                       # DTB misses
system.cpu0.itb.read_accesses                       0                       # DTB read accesses
system.cpu0.itb.read_hits                           0                       # DTB read hits
system.cpu0.itb.read_misses                         0                       # DTB read misses
system.cpu0.itb.write_accesses                      0                       # DTB write accesses
system.cpu0.itb.write_hits                          0                       # DTB write hits
system.cpu0.itb.write_misses                        0                       # DTB write misses
system.cpu0.memDep0.conflictingLoads         16959879                       # Number of conflicting loads.
system.cpu0.memDep0.conflictingStores         3099146                       # Number of conflicting stores.
system.cpu0.memDep0.insertedLoads           349525652                       # Number of loads inserted to the mem dependence unit.
system.cpu0.memDep0.insertedStores          133592089                       # Number of stores inserted to the mem dependence unit.
system.cpu0.misc_regfile_reads                   1688                       # number of misc regfile reads
system.cpu0.misc_regfile_writes                    30                       # number of misc regfile writes
system.cpu0.numCycles                      1883127878                       # number of cpu cycles simulated
system.cpu0.numWorkItemsCompleted                   0                       # number of work items this cpu completed
system.cpu0.numWorkItemsStarted                     0                       # number of work items this cpu started
system.cpu0.quiesceCycles                    20006797                       # Total number of cycles that CPU has spent quiesced or waiting for an interrupt
system.cpu0.rename.BlockCycles              152206535                       # Number of cycles rename is blocking
system.cpu0.rename.CommittedMaps            647599502                       # Number of HB maps that are committed
system.cpu0.rename.IQFullEvents               3586454                       # Number of times rename has blocked due to IQ full
system.cpu0.rename.IdleCycles               755604524                       # Number of cycles rename is idle
system.cpu0.rename.LQFullEvents               4807454                       # Number of times rename has blocked due to LQ full
system.cpu0.rename.ROBFullEvents                25416                       # Number of times rename has blocked due to ROB full
system.cpu0.rename.RenameLookups           1361515572                       # Number of register rename lookups that rename has made
system.cpu0.rename.RenamedInsts            1117191021                       # Number of instructions processed by rename
system.cpu0.rename.RenamedOperands          718225980                       # Number of destination operands rename has renamed
system.cpu0.rename.RunCycles                795714654                       # Number of cycles rename is running
system.cpu0.rename.SQFullEvents               6306145                       # Number of times rename has blocked due to SQ full
system.cpu0.rename.SquashCycles              10940984                       # Number of cycles rename is squashing
system.cpu0.rename.UnblockCycles             15144466                       # Number of cycles rename is unblocking
system.cpu0.rename.UndoneMaps                70626473                       # Number of HB maps that are undone due to squashing
system.cpu0.rename.fp_rename_lookups               56                       # Number of floating rename lookups
system.cpu0.rename.int_rename_lookups      1361515516                       # Number of integer rename lookups
system.cpu0.rename.serializeStallCycles        245688                       # count of cycles rename stalled for serializing inst
system.cpu0.rename.serializingInsts              5108                       # count of serializing insts renamed
system.cpu0.rename.skidInsts                  9339677                       # count of insts added to the skid buffer
system.cpu0.rename.tempSerializingInsts          5107                       # count of temporary serializing insts renamed
system.cpu0.rob.rob_reads                  2776721249                       # The number of ROB reads
system.cpu0.rob.rob_writes                 2211678581                       # The number of ROB writes
system.cpu0.timesIdled                       22676904                       # Number of times that the entire CPU went into an idle state and unscheduled itself
system.cpu0.workload.numSyscalls                 1644                       # Number of system calls
system.cpu1.branchPred.BTBCorrect                   0                       # Number of correct BTB predictions (this stat may not work properly.
system.cpu1.branchPred.BTBHitPct            78.875594                       # BTB Hit Percentage
system.cpu1.branchPred.BTBHits                6190887                       # Number of BTB hits
system.cpu1.branchPred.BTBLookups             7848926                       # Number of BTB lookups
system.cpu1.branchPred.RASInCorrect                 0                       # Number of incorrect RAS predictions.
system.cpu1.branchPred.condIncorrect          1114708                       # Number of conditional branches incorrect
system.cpu1.branchPred.condPredicted         10796489                       # Number of conditional branches predicted
system.cpu1.branchPred.indirectHits            230549                       # Number of indirect target hits.
system.cpu1.branchPred.indirectLookups         310618                       # Number of indirect predictor lookups.
system.cpu1.branchPred.indirectMisses           80069                       # Number of indirect misses.
system.cpu1.branchPred.lookups               12165184                       # Number of BP lookups
system.cpu1.branchPred.usedRAS                      0                       # Number of times the RAS was used to get a target.
system.cpu1.branchPredindirectMispredicted        13841                       # Number of mispredicted indirect branches.
system.cpu1.commit.amos                        905808                       # Number of atomic instructions committed
system.cpu1.commit.branchMispredicts           817469                       # The number of times a branch was mispredicted
system.cpu1.commit.branches                   8760274                       # Number of branches committed
system.cpu1.commit.bw_lim_events               885206                       # number cycles where commit BW limit reached
system.cpu1.commit.commitNonSpecStalls        2718127                       # The number of times commit has been forced to stall to communicate backwards
system.cpu1.commit.commitSquashedInsts        8213722                       # The number of squashed insts skipped by commit
system.cpu1.commit.committedInsts            37160407                       # Number of instructions committed
system.cpu1.commit.committedOps              38066416                       # Number of ops (including micro ops) committed
system.cpu1.commit.committed_per_cycle::samples    212542298                       # Number of insts commited each cycle
system.cpu1.commit.committed_per_cycle::mean     0.179100                       # Number of insts commited each cycle
system.cpu1.commit.committed_per_cycle::stdev     0.820099                       # Number of insts commited each cycle
system.cpu1.commit.committed_per_cycle::underflows            0      0.00%      0.00% # Number of insts commited each cycle
system.cpu1.commit.committed_per_cycle::0    196427865     92.42%     92.42% # Number of insts commited each cycle
system.cpu1.commit.committed_per_cycle::1      7929826      3.73%     96.15% # Number of insts commited each cycle
system.cpu1.commit.committed_per_cycle::2      2741130      1.29%     97.44% # Number of insts commited each cycle
system.cpu1.commit.committed_per_cycle::3      2624870      1.23%     98.67% # Number of insts commited each cycle
system.cpu1.commit.committed_per_cycle::4       883325      0.42%     99.09% # Number of insts commited each cycle
system.cpu1.commit.committed_per_cycle::5       211176      0.10%     99.19% # Number of insts commited each cycle
system.cpu1.commit.committed_per_cycle::6       763408      0.36%     99.55% # Number of insts commited each cycle
system.cpu1.commit.committed_per_cycle::7        75492      0.04%     99.58% # Number of insts commited each cycle
system.cpu1.commit.committed_per_cycle::8       885206      0.42%    100.00% # Number of insts commited each cycle
system.cpu1.commit.committed_per_cycle::overflows            0      0.00%    100.00% # Number of insts commited each cycle
system.cpu1.commit.committed_per_cycle::min_value            0                       # Number of insts commited each cycle
system.cpu1.commit.committed_per_cycle::max_value            8                       # Number of insts commited each cycle
system.cpu1.commit.committed_per_cycle::total    212542298                       # Number of insts commited each cycle
system.cpu1.commit.fp_insts                        12                       # Number of committed floating point instructions.
system.cpu1.commit.function_calls              376141                       # Number of function calls committed.
system.cpu1.commit.int_insts                 35775433                       # Number of committed integer instructions.
system.cpu1.commit.loads                     10293801                       # Number of loads committed
system.cpu1.commit.membars                    1811693                       # Number of memory barriers committed
system.cpu1.commit.op_class_0::No_OpClass      1811693      4.76%      4.76% # Class of committed instruction
system.cpu1.commit.op_class_0::IntAlu        22335407     58.67%     63.43% # Class of committed instruction
system.cpu1.commit.op_class_0::IntMult             43      0.00%     63.43% # Class of committed instruction
system.cpu1.commit.op_class_0::IntDiv              86      0.00%     63.43% # Class of committed instruction
system.cpu1.commit.op_class_0::FloatAdd             0      0.00%     63.43% # Class of committed instruction
system.cpu1.commit.op_class_0::FloatCmp             0      0.00%     63.43% # Class of committed instruction
system.cpu1.commit.op_class_0::FloatCvt             0      0.00%     63.43% # Class of committed instruction
system.cpu1.commit.op_class_0::FloatMult            0      0.00%     63.43% # Class of committed instruction
system.cpu1.commit.op_class_0::FloatMultAcc            0      0.00%     63.43% # Class of committed instruction
system.cpu1.commit.op_class_0::FloatDiv             0      0.00%     63.43% # Class of committed instruction
system.cpu1.commit.op_class_0::FloatMisc            0      0.00%     63.43% # Class of committed instruction
system.cpu1.commit.op_class_0::FloatSqrt            0      0.00%     63.43% # Class of committed instruction
system.cpu1.commit.op_class_0::SimdAdd              0      0.00%     63.43% # Class of committed instruction
system.cpu1.commit.op_class_0::SimdAddAcc            0      0.00%     63.43% # Class of committed instruction
system.cpu1.commit.op_class_0::SimdAlu              0      0.00%     63.43% # Class of committed instruction
system.cpu1.commit.op_class_0::SimdCmp              0      0.00%     63.43% # Class of committed instruction
system.cpu1.commit.op_class_0::SimdCvt              0      0.00%     63.43% # Class of committed instruction
system.cpu1.commit.op_class_0::SimdMisc             0      0.00%     63.43% # Class of committed instruction
system.cpu1.commit.op_class_0::SimdMult             0      0.00%     63.43% # Class of committed instruction
system.cpu1.commit.op_class_0::SimdMultAcc            0      0.00%     63.43% # Class of committed instruction
system.cpu1.commit.op_class_0::SimdShift            0      0.00%     63.43% # Class of committed instruction
system.cpu1.commit.op_class_0::SimdShiftAcc            0      0.00%     63.43% # Class of committed instruction
system.cpu1.commit.op_class_0::SimdDiv              0      0.00%     63.43% # Class of committed instruction
system.cpu1.commit.op_class_0::SimdSqrt             0      0.00%     63.43% # Class of committed instruction
system.cpu1.commit.op_class_0::SimdFloatAdd            0      0.00%     63.43% # Class of committed instruction
system.cpu1.commit.op_class_0::SimdFloatAlu            0      0.00%     63.43% # Class of committed instruction
system.cpu1.commit.op_class_0::SimdFloatCmp            0      0.00%     63.43% # Class of committed instruction
system.cpu1.commit.op_class_0::SimdFloatCvt            0      0.00%     63.43% # Class of committed instruction
system.cpu1.commit.op_class_0::SimdFloatDiv            0      0.00%     63.43% # Class of committed instruction
system.cpu1.commit.op_class_0::SimdFloatMisc            0      0.00%     63.43% # Class of committed instruction
system.cpu1.commit.op_class_0::SimdFloatMult            0      0.00%     63.43% # Class of committed instruction
system.cpu1.commit.op_class_0::SimdFloatMultAcc            0      0.00%     63.43% # Class of committed instruction
system.cpu1.commit.op_class_0::SimdFloatSqrt            0      0.00%     63.43% # Class of committed instruction
system.cpu1.commit.op_class_0::SimdReduceAdd            0      0.00%     63.43% # Class of committed instruction
system.cpu1.commit.op_class_0::SimdReduceAlu            0      0.00%     63.43% # Class of committed instruction
system.cpu1.commit.op_class_0::SimdReduceCmp            0      0.00%     63.43% # Class of committed instruction
system.cpu1.commit.op_class_0::SimdFloatReduceAdd            0      0.00%     63.43% # Class of committed instruction
system.cpu1.commit.op_class_0::SimdFloatReduceCmp            0      0.00%     63.43% # Class of committed instruction
system.cpu1.commit.op_class_0::SimdAes              0      0.00%     63.43% # Class of committed instruction
system.cpu1.commit.op_class_0::SimdAesMix            0      0.00%     63.43% # Class of committed instruction
system.cpu1.commit.op_class_0::SimdSha1Hash            0      0.00%     63.43% # Class of committed instruction
system.cpu1.commit.op_class_0::SimdSha1Hash2            0      0.00%     63.43% # Class of committed instruction
system.cpu1.commit.op_class_0::SimdSha256Hash            0      0.00%     63.43% # Class of committed instruction
system.cpu1.commit.op_class_0::SimdSha256Hash2            0      0.00%     63.43% # Class of committed instruction
system.cpu1.commit.op_class_0::SimdShaSigma2            0      0.00%     63.43% # Class of committed instruction
system.cpu1.commit.op_class_0::SimdShaSigma3            0      0.00%     63.43% # Class of committed instruction
system.cpu1.commit.op_class_0::SimdPredAlu            0      0.00%     63.43% # Class of committed instruction
system.cpu1.commit.op_class_0::MemRead       11199609     29.42%     92.86% # Class of committed instruction
system.cpu1.commit.op_class_0::MemWrite       2719566      7.14%    100.00% # Class of committed instruction
system.cpu1.commit.op_class_0::FloatMemRead            0      0.00%    100.00% # Class of committed instruction
system.cpu1.commit.op_class_0::FloatMemWrite           12      0.00%    100.00% # Class of committed instruction
system.cpu1.commit.op_class_0::IprAccess            0      0.00%    100.00% # Class of committed instruction
system.cpu1.commit.op_class_0::InstPrefetch            0      0.00%    100.00% # Class of committed instruction
system.cpu1.commit.op_class_0::total         38066416                       # Class of committed instruction
system.cpu1.commit.refs                      13919187                       # Number of memory references committed
system.cpu1.commit.swp_count                        0                       # Number of s/w prefetches committed
system.cpu1.commit.vec_insts                        0                       # Number of committed Vector instructions.
system.cpu1.committedInsts                   37160407                       # Number of Instructions Simulated
system.cpu1.committedOps                     38066416                       # Number of Ops (including micro ops) Simulated
system.cpu1.cpi                              5.812362                       # CPI: Cycles Per Instruction
system.cpu1.cpi_total                        5.812362                       # CPI: Total CPI of All Threads
system.cpu1.decode.BlockedCycles            182216332                       # Number of cycles decode is blocked
system.cpu1.decode.BranchMispred               303367                       # Number of times decode detected a branch misprediction
system.cpu1.decode.BranchResolved             5773623                       # Number of times decode resolved a branch
system.cpu1.decode.DecodedInsts              49836075                       # Number of instructions handled by decode
system.cpu1.decode.IdleCycles                 8397198                       # Number of cycles decode is idle
system.cpu1.decode.RunCycles                 20772595                       # Number of cycles decode is running
system.cpu1.decode.SquashCycles                818512                       # Number of cycles decode is squashing
system.cpu1.decode.SquashedInsts               474087                       # Number of squashed instructions handled by decode
system.cpu1.decode.UnblockCycles              1872189                       # Number of cycles decode is unblocking
system.cpu1.dtb.accesses                            0                       # DTB accesses
system.cpu1.dtb.hits                                0                       # DTB hits
system.cpu1.dtb.misses                              0                       # DTB misses
system.cpu1.dtb.read_accesses                       0                       # DTB read accesses
system.cpu1.dtb.read_hits                           0                       # DTB read hits
system.cpu1.dtb.read_misses                         0                       # DTB read misses
system.cpu1.dtb.write_accesses                      0                       # DTB write accesses
system.cpu1.dtb.write_hits                          0                       # DTB write hits
system.cpu1.dtb.write_misses                        0                       # DTB write misses
system.cpu1.fetch.Branches                   12165184                       # Number of branches that fetch encountered
system.cpu1.fetch.CacheLines                  6927747                       # Number of cache lines fetched
system.cpu1.fetch.Cycles                    204598050                       # Number of cycles fetch has run and was not squashing or blocked
system.cpu1.fetch.IcacheSquashes               135615                       # Number of outstanding Icache misses that were squashed
system.cpu1.fetch.Insts                      53083901                       # Number of instructions fetch has processed
system.cpu1.fetch.MiscStallCycles                   1                       # Number of cycles fetch has spent waiting on interrupts, or bad addresses, or out of MSHRs
system.cpu1.fetch.SquashCycles                2231502                       # Number of cycles fetch has spent squashing
system.cpu1.fetch.branchRate                 0.056323                       # Number of branch fetches per cycle
system.cpu1.fetch.icacheStallCycles           8363024                       # Number of cycles fetch is stalled on an Icache miss
system.cpu1.fetch.predictedBranches           6421436                       # Number of branches that fetch has predicted taken
system.cpu1.fetch.rate                       0.245770                       # Number of inst fetches per cycle
system.cpu1.fetch.rateDist::samples         214076826                       # Number of instructions fetched each cycle (Total)
system.cpu1.fetch.rateDist::mean             0.254434                       # Number of instructions fetched each cycle (Total)
system.cpu1.fetch.rateDist::stdev            0.729873                       # Number of instructions fetched each cycle (Total)
system.cpu1.fetch.rateDist::underflows              0      0.00%      0.00% # Number of instructions fetched each cycle (Total)
system.cpu1.fetch.rateDist::0               181739137     84.89%     84.89% # Number of instructions fetched each cycle (Total)
system.cpu1.fetch.rateDist::1                19082632      8.91%     93.81% # Number of instructions fetched each cycle (Total)
system.cpu1.fetch.rateDist::2                 7874940      3.68%     97.49% # Number of instructions fetched each cycle (Total)
system.cpu1.fetch.rateDist::3                 3426787      1.60%     99.09% # Number of instructions fetched each cycle (Total)
system.cpu1.fetch.rateDist::4                 1027838      0.48%     99.57% # Number of instructions fetched each cycle (Total)
system.cpu1.fetch.rateDist::5                  345600      0.16%     99.73% # Number of instructions fetched each cycle (Total)
system.cpu1.fetch.rateDist::6                  560842      0.26%     99.99% # Number of instructions fetched each cycle (Total)
system.cpu1.fetch.rateDist::7                    1192      0.00%     99.99% # Number of instructions fetched each cycle (Total)
system.cpu1.fetch.rateDist::8                   17858      0.01%    100.00% # Number of instructions fetched each cycle (Total)
system.cpu1.fetch.rateDist::overflows               0      0.00%    100.00% # Number of instructions fetched each cycle (Total)
system.cpu1.fetch.rateDist::min_value               0                       # Number of instructions fetched each cycle (Total)
system.cpu1.fetch.rateDist::max_value               8                       # Number of instructions fetched each cycle (Total)
system.cpu1.fetch.rateDist::total           214076826                       # Number of instructions fetched each cycle (Total)
system.cpu1.fp_regfile_reads                       12                       # number of floating regfile reads
system.cpu1.idleCycles                        1912907                       # Total number of cycles that the CPU has spent unscheduled due to idling
system.cpu1.iew.branchMispredicts              856680                       # Number of branch mispredicts detected at execute
system.cpu1.iew.exec_branches                 9668684                       # Number of branches executed
system.cpu1.iew.exec_nop                            0                       # number of nop insts executed
system.cpu1.iew.exec_rate                    0.192850                       # Inst execution rate
system.cpu1.iew.exec_refs                    14990172                       # number of memory reference insts executed
system.cpu1.iew.exec_stores                   3882585                       # Number of stores executed
system.cpu1.iew.exec_swp                            0                       # number of swp insts executed
system.cpu1.iew.iewBlockCycles              163473761                       # Number of cycles IEW is blocking
system.cpu1.iew.iewDispLoadInsts             12403993                       # Number of dispatched load instructions
system.cpu1.iew.iewDispNonSpecInsts           1155511                       # Number of dispatched non-speculative instructions
system.cpu1.iew.iewDispSquashedInsts           954367                       # Number of squashed instructions skipped by dispatch
system.cpu1.iew.iewDispStoreInsts             4494415                       # Number of dispatched store instructions
system.cpu1.iew.iewDispatchedInsts           46271822                       # Number of instructions dispatched to IQ
system.cpu1.iew.iewExecLoadInsts             11107587                       # Number of load instructions executed
system.cpu1.iew.iewExecSquashedInsts           643575                       # Number of squashed instructions skipped in execute
system.cpu1.iew.iewExecutedInsts             41653619                       # Number of executed instructions
system.cpu1.iew.iewIQFullEvents                625388                       # Number of times the IQ has become full, causing a stall
system.cpu1.iew.iewIdleCycles                       0                       # Number of cycles IEW is idle
system.cpu1.iew.iewLSQFullEvents              1168816                       # Number of times the LSQ has become full, causing a stall
system.cpu1.iew.iewSquashCycles                818512                       # Number of cycles IEW is squashing
system.cpu1.iew.iewUnblockCycles              2824432                       # Number of cycles IEW is unblocking
system.cpu1.iew.lsq.thread0.blockedLoads            0                       # Number of blocked loads due to partial load-store forwarding
system.cpu1.iew.lsq.thread0.cacheBlocked        17521                       # Number of times an access to memory failed due to the cache being blocked
system.cpu1.iew.lsq.thread0.forwLoads          279452                       # Number of loads that had data forwarded from stores
system.cpu1.iew.lsq.thread0.ignoredResponses         7441                       # Number of memory responses ignored because the instruction is squashed
system.cpu1.iew.lsq.thread0.invAddrLoads            0                       # Number of loads ignored due to an invalid address
system.cpu1.iew.lsq.thread0.invAddrSwpfs            0                       # Number of software prefetches ignored due to an invalid address
system.cpu1.iew.lsq.thread0.memOrderViolation         1307                       # Number of memory ordering violations
system.cpu1.iew.lsq.thread0.rescheduledLoads         3470                       # Number of loads that were rescheduled
system.cpu1.iew.lsq.thread0.squashedLoads      2110192                       # Number of loads squashed
system.cpu1.iew.lsq.thread0.squashedStores       869029                       # Number of stores squashed
system.cpu1.iew.memOrderViolationEvents          1307                       # Number of memory order violations
system.cpu1.iew.predictedNotTakenIncorrect       362121                       # Number of branches that were predicted not taken incorrectly
system.cpu1.iew.predictedTakenIncorrect        494559                       # Number of branches that were predicted taken incorrectly
system.cpu1.iew.wb_consumers                 22907144                       # num instructions consuming a value
system.cpu1.iew.wb_count                     41244606                       # cumulative count of insts written-back
system.cpu1.iew.wb_fanout                    0.839262                       # average fanout of values written-back
system.cpu1.iew.wb_producers                 19225098                       # num instructions producing a value
system.cpu1.iew.wb_rate                      0.190956                       # insts written-back per cycle
system.cpu1.iew.wb_sent                      41261676                       # cumulative count of insts sent to commit
system.cpu1.int_regfile_reads                52943285                       # number of integer regfile reads
system.cpu1.int_regfile_writes               27014102                       # number of integer regfile writes
system.cpu1.ipc                              0.172047                       # IPC: Instructions Per Cycle
system.cpu1.ipc_total                        0.172047                       # IPC: Total IPC of All Threads
system.cpu1.iq.FU_type_0::No_OpClass          1811902      4.28%      4.28% # Type of FU issued
system.cpu1.iq.FU_type_0::IntAlu             25295765     59.80%     64.09% # Type of FU issued
system.cpu1.iq.FU_type_0::IntMult                  49      0.00%     64.09% # Type of FU issued
system.cpu1.iq.FU_type_0::IntDiv                   88      0.00%     64.09% # Type of FU issued
system.cpu1.iq.FU_type_0::FloatAdd                  0      0.00%     64.09% # Type of FU issued
system.cpu1.iq.FU_type_0::FloatCmp                  0      0.00%     64.09% # Type of FU issued
system.cpu1.iq.FU_type_0::FloatCvt                  0      0.00%     64.09% # Type of FU issued
system.cpu1.iq.FU_type_0::FloatMult                 0      0.00%     64.09% # Type of FU issued
system.cpu1.iq.FU_type_0::FloatMultAcc              0      0.00%     64.09% # Type of FU issued
system.cpu1.iq.FU_type_0::FloatDiv                  0      0.00%     64.09% # Type of FU issued
system.cpu1.iq.FU_type_0::FloatMisc                 0      0.00%     64.09% # Type of FU issued
system.cpu1.iq.FU_type_0::FloatSqrt                 0      0.00%     64.09% # Type of FU issued
system.cpu1.iq.FU_type_0::SimdAdd                   0      0.00%     64.09% # Type of FU issued
system.cpu1.iq.FU_type_0::SimdAddAcc                0      0.00%     64.09% # Type of FU issued
system.cpu1.iq.FU_type_0::SimdAlu                   0      0.00%     64.09% # Type of FU issued
system.cpu1.iq.FU_type_0::SimdCmp                   0      0.00%     64.09% # Type of FU issued
system.cpu1.iq.FU_type_0::SimdCvt                   0      0.00%     64.09% # Type of FU issued
system.cpu1.iq.FU_type_0::SimdMisc                  0      0.00%     64.09% # Type of FU issued
system.cpu1.iq.FU_type_0::SimdMult                  0      0.00%     64.09% # Type of FU issued
system.cpu1.iq.FU_type_0::SimdMultAcc               0      0.00%     64.09% # Type of FU issued
system.cpu1.iq.FU_type_0::SimdShift                 0      0.00%     64.09% # Type of FU issued
system.cpu1.iq.FU_type_0::SimdShiftAcc              0      0.00%     64.09% # Type of FU issued
system.cpu1.iq.FU_type_0::SimdDiv                   0      0.00%     64.09% # Type of FU issued
system.cpu1.iq.FU_type_0::SimdSqrt                  0      0.00%     64.09% # Type of FU issued
system.cpu1.iq.FU_type_0::SimdFloatAdd              0      0.00%     64.09% # Type of FU issued
system.cpu1.iq.FU_type_0::SimdFloatAlu              0      0.00%     64.09% # Type of FU issued
system.cpu1.iq.FU_type_0::SimdFloatCmp              0      0.00%     64.09% # Type of FU issued
system.cpu1.iq.FU_type_0::SimdFloatCvt              0      0.00%     64.09% # Type of FU issued
system.cpu1.iq.FU_type_0::SimdFloatDiv              0      0.00%     64.09% # Type of FU issued
system.cpu1.iq.FU_type_0::SimdFloatMisc             0      0.00%     64.09% # Type of FU issued
system.cpu1.iq.FU_type_0::SimdFloatMult             0      0.00%     64.09% # Type of FU issued
system.cpu1.iq.FU_type_0::SimdFloatMultAcc            0      0.00%     64.09% # Type of FU issued
system.cpu1.iq.FU_type_0::SimdFloatSqrt             0      0.00%     64.09% # Type of FU issued
system.cpu1.iq.FU_type_0::SimdReduceAdd             0      0.00%     64.09% # Type of FU issued
system.cpu1.iq.FU_type_0::SimdReduceAlu             0      0.00%     64.09% # Type of FU issued
system.cpu1.iq.FU_type_0::SimdReduceCmp             0      0.00%     64.09% # Type of FU issued
system.cpu1.iq.FU_type_0::SimdFloatReduceAdd            0      0.00%     64.09% # Type of FU issued
system.cpu1.iq.FU_type_0::SimdFloatReduceCmp            0      0.00%     64.09% # Type of FU issued
system.cpu1.iq.FU_type_0::SimdAes                   0      0.00%     64.09% # Type of FU issued
system.cpu1.iq.FU_type_0::SimdAesMix                0      0.00%     64.09% # Type of FU issued
system.cpu1.iq.FU_type_0::SimdSha1Hash              0      0.00%     64.09% # Type of FU issued
system.cpu1.iq.FU_type_0::SimdSha1Hash2             0      0.00%     64.09% # Type of FU issued
system.cpu1.iq.FU_type_0::SimdSha256Hash            0      0.00%     64.09% # Type of FU issued
system.cpu1.iq.FU_type_0::SimdSha256Hash2            0      0.00%     64.09% # Type of FU issued
system.cpu1.iq.FU_type_0::SimdShaSigma2             0      0.00%     64.09% # Type of FU issued
system.cpu1.iq.FU_type_0::SimdShaSigma3             0      0.00%     64.09% # Type of FU issued
system.cpu1.iq.FU_type_0::SimdPredAlu               0      0.00%     64.09% # Type of FU issued
system.cpu1.iq.FU_type_0::MemRead            12170444     28.77%     92.86% # Type of FU issued
system.cpu1.iq.FU_type_0::MemWrite            3018934      7.14%    100.00% # Type of FU issued
system.cpu1.iq.FU_type_0::FloatMemRead              0      0.00%    100.00% # Type of FU issued
system.cpu1.iq.FU_type_0::FloatMemWrite            12      0.00%    100.00% # Type of FU issued
system.cpu1.iq.FU_type_0::IprAccess                 0      0.00%    100.00% # Type of FU issued
system.cpu1.iq.FU_type_0::InstPrefetch              0      0.00%    100.00% # Type of FU issued
system.cpu1.iq.FU_type_0::total              42297194                       # Type of FU issued
system.cpu1.iq.fp_alu_accesses                     15                       # Number of floating point alu accesses
system.cpu1.iq.fp_inst_queue_reads                 27                       # Number of floating instruction queue reads
system.cpu1.iq.fp_inst_queue_wakeup_accesses           12                       # Number of floating instruction queue wakeup accesses
system.cpu1.iq.fp_inst_queue_writes                12                       # Number of floating instruction queue writes
system.cpu1.iq.fu_busy_cnt                    1000865                       # FU busy when requested
system.cpu1.iq.fu_busy_rate                  0.023663                       # FU busy rate (busy events/executed inst)
system.cpu1.iq.fu_full::No_OpClass                  0      0.00%      0.00% # attempts to use FU when none available
system.cpu1.iq.fu_full::IntAlu                 171874     17.17%     17.17% # attempts to use FU when none available
system.cpu1.iq.fu_full::IntMult                     0      0.00%     17.17% # attempts to use FU when none available
system.cpu1.iq.fu_full::IntDiv                      0      0.00%     17.17% # attempts to use FU when none available
system.cpu1.iq.fu_full::FloatAdd                    0      0.00%     17.17% # attempts to use FU when none available
system.cpu1.iq.fu_full::FloatCmp                    0      0.00%     17.17% # attempts to use FU when none available
system.cpu1.iq.fu_full::FloatCvt                    0      0.00%     17.17% # attempts to use FU when none available
system.cpu1.iq.fu_full::FloatMult                   0      0.00%     17.17% # attempts to use FU when none available
system.cpu1.iq.fu_full::FloatMultAcc                0      0.00%     17.17% # attempts to use FU when none available
system.cpu1.iq.fu_full::FloatDiv                    0      0.00%     17.17% # attempts to use FU when none available
system.cpu1.iq.fu_full::FloatMisc                   0      0.00%     17.17% # attempts to use FU when none available
system.cpu1.iq.fu_full::FloatSqrt                   0      0.00%     17.17% # attempts to use FU when none available
system.cpu1.iq.fu_full::SimdAdd                     0      0.00%     17.17% # attempts to use FU when none available
system.cpu1.iq.fu_full::SimdAddAcc                  0      0.00%     17.17% # attempts to use FU when none available
system.cpu1.iq.fu_full::SimdAlu                     0      0.00%     17.17% # attempts to use FU when none available
system.cpu1.iq.fu_full::SimdCmp                     0      0.00%     17.17% # attempts to use FU when none available
system.cpu1.iq.fu_full::SimdCvt                     0      0.00%     17.17% # attempts to use FU when none available
system.cpu1.iq.fu_full::SimdMisc                    0      0.00%     17.17% # attempts to use FU when none available
system.cpu1.iq.fu_full::SimdMult                    0      0.00%     17.17% # attempts to use FU when none available
system.cpu1.iq.fu_full::SimdMultAcc                 0      0.00%     17.17% # attempts to use FU when none available
system.cpu1.iq.fu_full::SimdShift                   0      0.00%     17.17% # attempts to use FU when none available
system.cpu1.iq.fu_full::SimdShiftAcc                0      0.00%     17.17% # attempts to use FU when none available
system.cpu1.iq.fu_full::SimdDiv                     0      0.00%     17.17% # attempts to use FU when none available
system.cpu1.iq.fu_full::SimdSqrt                    0      0.00%     17.17% # attempts to use FU when none available
system.cpu1.iq.fu_full::SimdFloatAdd                0      0.00%     17.17% # attempts to use FU when none available
system.cpu1.iq.fu_full::SimdFloatAlu                0      0.00%     17.17% # attempts to use FU when none available
system.cpu1.iq.fu_full::SimdFloatCmp                0      0.00%     17.17% # attempts to use FU when none available
system.cpu1.iq.fu_full::SimdFloatCvt                0      0.00%     17.17% # attempts to use FU when none available
system.cpu1.iq.fu_full::SimdFloatDiv                0      0.00%     17.17% # attempts to use FU when none available
system.cpu1.iq.fu_full::SimdFloatMisc               0      0.00%     17.17% # attempts to use FU when none available
system.cpu1.iq.fu_full::SimdFloatMult               0      0.00%     17.17% # attempts to use FU when none available
system.cpu1.iq.fu_full::SimdFloatMultAcc            0      0.00%     17.17% # attempts to use FU when none available
system.cpu1.iq.fu_full::SimdFloatSqrt               0      0.00%     17.17% # attempts to use FU when none available
system.cpu1.iq.fu_full::SimdReduceAdd               0      0.00%     17.17% # attempts to use FU when none available
system.cpu1.iq.fu_full::SimdReduceAlu               0      0.00%     17.17% # attempts to use FU when none available
system.cpu1.iq.fu_full::SimdReduceCmp               0      0.00%     17.17% # attempts to use FU when none available
system.cpu1.iq.fu_full::SimdFloatReduceAdd            0      0.00%     17.17% # attempts to use FU when none available
system.cpu1.iq.fu_full::SimdFloatReduceCmp            0      0.00%     17.17% # attempts to use FU when none available
system.cpu1.iq.fu_full::SimdAes                     0      0.00%     17.17% # attempts to use FU when none available
system.cpu1.iq.fu_full::SimdAesMix                  0      0.00%     17.17% # attempts to use FU when none available
system.cpu1.iq.fu_full::SimdSha1Hash                0      0.00%     17.17% # attempts to use FU when none available
system.cpu1.iq.fu_full::SimdSha1Hash2               0      0.00%     17.17% # attempts to use FU when none available
system.cpu1.iq.fu_full::SimdSha256Hash              0      0.00%     17.17% # attempts to use FU when none available
system.cpu1.iq.fu_full::SimdSha256Hash2             0      0.00%     17.17% # attempts to use FU when none available
system.cpu1.iq.fu_full::SimdShaSigma2               0      0.00%     17.17% # attempts to use FU when none available
system.cpu1.iq.fu_full::SimdShaSigma3               0      0.00%     17.17% # attempts to use FU when none available
system.cpu1.iq.fu_full::SimdPredAlu                 0      0.00%     17.17% # attempts to use FU when none available
system.cpu1.iq.fu_full::MemRead                743178     74.25%     91.43% # attempts to use FU when none available
system.cpu1.iq.fu_full::MemWrite                85810      8.57%    100.00% # attempts to use FU when none available
[...]
system.cpu1.dcache.WriteReq_avg_mshr_miss_latency::total 75778.698381                       # average WriteReq mshr miss latency
system.cpu1.dcache.LoadLockedReq_hits::.cpu1.data         7581                       # number of LoadLockedReq hits
system.cpu1.dcache.LoadLockedReq_hits::total         7581                       # number of LoadLockedReq hits
system.cpu1.dcache.LoadLockedReq_misses::.cpu1.data         1978                       # number of LoadLockedReq misses
system.cpu1.dcache.LoadLockedReq_misses::total         1978                       # number of LoadLockedReq misses
system.cpu1.dcache.LoadLockedReq_miss_latency::.cpu1.data     34210500                       # number of LoadLockedReq miss cycles
system.cpu1.dcache.LoadLockedReq_miss_latency::total     34210500                       # number of LoadLockedReq miss cycles
system.cpu1.dcache.LoadLockedReq_accesses::.cpu1.data         9559                       # number of LoadLockedReq accesses(hits+misses)
system.cpu1.dcache.LoadLockedReq_accesses::total         9559                       # number of LoadLockedReq accesses(hits+misses)
system.cpu1.dcache.LoadLockedReq_miss_rate::.cpu1.data     0.206925                       # miss rate for LoadLockedReq accesses
system.cpu1.dcache.LoadLockedReq_miss_rate::total     0.206925                       # miss rate for LoadLockedReq accesses
system.cpu1.dcache.LoadLockedReq_avg_miss_latency::.cpu1.data 17295.500506                       # average LoadLockedReq miss latency
system.cpu1.dcache.LoadLockedReq_avg_miss_latency::total 17295.500506                       # average LoadLockedReq miss latency
system.cpu1.dcache.LoadLockedReq_mshr_hits::.cpu1.data          481                       # number of LoadLockedReq MSHR hits
system.cpu1.dcache.LoadLockedReq_mshr_hits::total          481                       # number of LoadLockedReq MSHR hits
system.cpu1.dcache.LoadLockedReq_mshr_misses::.cpu1.data         1497                       # number of LoadLockedReq MSHR misses
system.cpu1.dcache.LoadLockedReq_mshr_misses::total         1497                       # number of LoadLockedReq MSHR misses
system.cpu1.dcache.LoadLockedReq_mshr_miss_latency::.cpu1.data     22302500                       # number of LoadLockedReq MSHR miss cycles
system.cpu1.dcache.LoadLockedReq_mshr_miss_latency::total     22302500                       # number of LoadLockedReq MSHR miss cycles
system.cpu1.dcache.LoadLockedReq_mshr_miss_rate::.cpu1.data     0.156606                       # mshr miss rate for LoadLockedReq accesses
system.cpu1.dcache.LoadLockedReq_mshr_miss_rate::total     0.156606                       # mshr miss rate for LoadLockedReq accesses
system.cpu1.dcache.LoadLockedReq_avg_mshr_miss_latency::.cpu1.data 14898.129593                       # average LoadLockedReq mshr miss latency
system.cpu1.dcache.LoadLockedReq_avg_mshr_miss_latency::total 14898.129593                       # average LoadLockedReq mshr miss latency
system.cpu1.dcache.StoreCondReq_hits::.cpu1.data         3582                       # number of StoreCondReq hits
system.cpu1.dcache.StoreCondReq_hits::total         3582                       # number of StoreCondReq hits
system.cpu1.dcache.StoreCondReq_misses::.cpu1.data         3392                       # number of StoreCondReq misses
system.cpu1.dcache.StoreCondReq_misses::total         3392                       # number of StoreCondReq misses
system.cpu1.dcache.StoreCondReq_miss_latency::.cpu1.data     26828500                       # number of StoreCondReq miss cycles
system.cpu1.dcache.StoreCondReq_miss_latency::total     26828500                       # number of StoreCondReq miss cycles
system.cpu1.dcache.StoreCondReq_accesses::.cpu1.data         6974                       # number of StoreCondReq accesses(hits+misses)
system.cpu1.dcache.StoreCondReq_accesses::total         6974                       # number of StoreCondReq accesses(hits+misses)
system.cpu1.dcache.StoreCondReq_miss_rate::.cpu1.data     0.486378                       # miss rate for StoreCondReq accesses
system.cpu1.dcache.StoreCondReq_miss_rate::total     0.486378                       # miss rate for StoreCondReq accesses
system.cpu1.dcache.StoreCondReq_avg_miss_latency::.cpu1.data  7909.345519                       # average StoreCondReq miss latency
system.cpu1.dcache.StoreCondReq_avg_miss_latency::total  7909.345519                       # average StoreCondReq miss latency
system.cpu1.dcache.StoreCondReq_mshr_misses::.cpu1.data         3290                       # number of StoreCondReq MSHR misses
system.cpu1.dcache.StoreCondReq_mshr_misses::total         3290                       # number of StoreCondReq MSHR misses
system.cpu1.dcache.StoreCondReq_mshr_miss_latency::.cpu1.data     23736500                       # number of StoreCondReq MSHR miss cycles
system.cpu1.dcache.StoreCondReq_mshr_miss_latency::total     23736500                       # number of StoreCondReq MSHR miss cycles
system.cpu1.dcache.StoreCondReq_mshr_miss_rate::.cpu1.data     0.471752                       # mshr miss rate for StoreCondReq accesses
system.cpu1.dcache.StoreCondReq_mshr_miss_rate::total     0.471752                       # mshr miss rate for StoreCondReq accesses
system.cpu1.dcache.StoreCondReq_avg_mshr_miss_latency::.cpu1.data  7214.741641                       # average StoreCondReq mshr miss latency
system.cpu1.dcache.StoreCondReq_avg_mshr_miss_latency::total  7214.741641                       # average StoreCondReq mshr miss latency
system.cpu1.dcache.StoreCondFailReq_miss_latency::.cpu1.data      2181500                       # number of StoreCondFailReq miss cycles
system.cpu1.dcache.StoreCondFailReq_miss_latency::total      2181500                       # number of StoreCondFailReq miss cycles
system.cpu1.dcache.StoreCondFailReq_avg_miss_latency::.cpu1.data          inf                       # average StoreCondFailReq miss latency
system.cpu1.dcache.StoreCondFailReq_avg_miss_latency::total          inf                       # average StoreCondFailReq miss latency
system.cpu1.dcache.StoreCondFailReq_mshr_miss_latency::.cpu1.data      1983500                       # number of StoreCondFailReq MSHR miss cycles
system.cpu1.dcache.StoreCondFailReq_mshr_miss_latency::total      1983500                       # number of StoreCondFailReq MSHR miss cycles
system.cpu1.dcache.StoreCondFailReq_avg_mshr_miss_latency::.cpu1.data          inf                       # average StoreCondFailReq mshr miss latency
system.cpu1.dcache.StoreCondFailReq_avg_mshr_miss_latency::total          inf                       # average StoreCondFailReq mshr miss latency
system.cpu1.dcache.SwapReq_hits::.cpu1.data         2215                       # number of SwapReq hits
system.cpu1.dcache.SwapReq_hits::total           2215                       # number of SwapReq hits
system.cpu1.dcache.SwapReq_misses::.cpu1.data       100439                       # number of SwapReq misses
system.cpu1.dcache.SwapReq_misses::total       100439                       # number of SwapReq misses
system.cpu1.dcache.SwapReq_miss_latency::.cpu1.data   2985109999                       # number of SwapReq miss cycles
system.cpu1.dcache.SwapReq_miss_latency::total   2985109999                       # number of SwapReq miss cycles
system.cpu1.dcache.SwapReq_accesses::.cpu1.data       102654                       # number of SwapReq accesses(hits+misses)
system.cpu1.dcache.SwapReq_accesses::total       102654                       # number of SwapReq accesses(hits+misses)
system.cpu1.dcache.SwapReq_miss_rate::.cpu1.data     0.978423                       # miss rate for SwapReq accesses
system.cpu1.dcache.SwapReq_miss_rate::total     0.978423                       # miss rate for SwapReq accesses
system.cpu1.dcache.SwapReq_avg_miss_latency::.cpu1.data 29720.626440                       # average SwapReq miss latency
system.cpu1.dcache.SwapReq_avg_miss_latency::total 29720.626440                       # average SwapReq miss latency
system.cpu1.dcache.SwapReq_mshr_hits::.cpu1.data            2                       # number of SwapReq MSHR hits
system.cpu1.dcache.SwapReq_mshr_hits::total            2                       # number of SwapReq MSHR hits
system.cpu1.dcache.SwapReq_mshr_misses::.cpu1.data       100437                       # number of SwapReq MSHR misses
system.cpu1.dcache.SwapReq_mshr_misses::total       100437                       # number of SwapReq MSHR misses
system.cpu1.dcache.SwapReq_mshr_miss_latency::.cpu1.data   2884670999                       # number of SwapReq MSHR miss cycles
system.cpu1.dcache.SwapReq_mshr_miss_latency::total   2884670999                       # number of SwapReq MSHR miss cycles
system.cpu1.dcache.SwapReq_mshr_miss_rate::.cpu1.data     0.978403                       # mshr miss rate for SwapReq accesses
system.cpu1.dcache.SwapReq_mshr_miss_rate::total     0.978403                       # mshr miss rate for SwapReq accesses
system.cpu1.dcache.SwapReq_avg_mshr_miss_latency::.cpu1.data 28721.198353                       # average SwapReq mshr miss latency
system.cpu1.dcache.SwapReq_avg_mshr_miss_latency::total 28721.198353                       # average SwapReq mshr miss latency
system.cpu1.dcache.tags.pwrStateResidencyTicks::UNDEFINED 2070870580500                       # Cumulative time (in ticks) in various power states
system.cpu1.dcache.tags.tagsinuse           31.963934                       # Cycle average of tags in use
system.cpu1.dcache.tags.total_refs          158029192                       # Total number of references to valid blocks.
system.cpu1.dcache.tags.sampled_refs         63272542                       # Sample count of references to valid blocks.
system.cpu1.dcache.tags.avg_refs             2.497595                       # Average number of references to valid blocks.
system.cpu1.dcache.tags.warmup_cycle                0                       # Cycle when the warmup percentage was hit.
system.cpu1.dcache.tags.occ_blocks::.cpu1.data    31.963934                       # Average occupied blocks per requestor
system.cpu1.dcache.tags.occ_percent::.cpu1.data     0.998873                       # Average percentage of cache occupancy
system.cpu1.dcache.tags.occ_percent::total     0.998873                       # Average percentage of cache occupancy
system.cpu1.dcache.tags.occ_task_id_blocks::1024           30                       # Occupied blocks per task id
system.cpu1.dcache.tags.age_task_id_blocks_1024::1           30                       # Occupied blocks per task id
system.cpu1.dcache.tags.occ_task_id_percent::1024     0.937500                       # Percentage of cache occupancy per task id
system.cpu1.dcache.tags.tag_accesses        466876573                       # Number of tag accesses
system.cpu1.dcache.tags.data_accesses       466876573                       # Number of data accesses
system.cpu_clk_domain.clock                       500                       # Clock period in ticks
system.tol2bus.pwrStateResidencyTicks::UNDEFINED 2070870580500                       # Cumulative time (in ticks) in various power states
system.tol2bus.trans_dist::ReadResp         250086356                       # Transaction distribution
system.tol2bus.trans_dist::ReadRespWithInvalidate           23                       # Transaction distribution
system.tol2bus.trans_dist::WritebackDirty     12207775                       # Transaction distribution
system.tol2bus.trans_dist::WritebackClean    246267325                       # Transaction distribution
system.tol2bus.trans_dist::CleanEvict       553298187                       # Transaction distribution
system.tol2bus.trans_dist::HardPFReq        167317321                       # Transaction distribution
system.tol2bus.trans_dist::HardPFResp             190                       # Transaction distribution
system.tol2bus.trans_dist::UpgradeReq          152868                       # Transaction distribution
system.tol2bus.trans_dist::SCUpgradeReq         10554                       # Transaction distribution
system.tol2bus.trans_dist::UpgradeResp         163422                       # Transaction distribution
system.tol2bus.trans_dist::SCUpgradeFailReq          900                       # Transaction distribution
system.tol2bus.trans_dist::UpgradeFailResp          900                       # Transaction distribution
system.tol2bus.trans_dist::ReadExReq          3270361                       # Transaction distribution
system.tol2bus.trans_dist::ReadExResp         3270361                       # Transaction distribution
system.tol2bus.trans_dist::ReadCleanReq        257428                       # Transaction distribution
system.tol2bus.trans_dist::ReadSharedReq    249828952                       # Transaction distribution
system.tol2bus.trans_dist::InvalidateReq          356                       # Transaction distribution
system.tol2bus.trans_dist::InvalidateResp          356                       # Transaction distribution
system.tol2bus.pkt_count_system.cpu0.icache.mem_side::system.l2.cpu_side       455637                       # Packet count per connected master and slave (bytes)
system.tol2bus.pkt_count_system.cpu0.dcache.mem_side::system.l2.cpu_side    189826573                       # Packet count per connected master and slave (bytes)
system.tol2bus.pkt_count_system.cpu1.icache.mem_side::system.l2.cpu_side       104175                       # Packet count per connected master and slave (bytes)
system.tol2bus.pkt_count_system.cpu1.dcache.mem_side::system.l2.cpu_side    189699036                       # Packet count per connected master and slave (bytes)
system.tol2bus.pkt_count_system.cpu2.icache.mem_side::system.l2.cpu_side       106065                       # Packet count per connected master and slave (bytes)
system.tol2bus.pkt_count_system.cpu2.dcache.mem_side::system.l2.cpu_side    189666259                       # Packet count per connected master and slave (bytes)
system.tol2bus.pkt_count_system.cpu3.icache.mem_side::system.l2.cpu_side       106398                       # Packet count per connected master and slave (bytes)
system.tol2bus.pkt_count_system.cpu3.dcache.mem_side::system.l2.cpu_side    189630309                       # Packet count per connected master and slave (bytes)
system.tol2bus.pkt_count::total             759594452                       # Packet count per connected master and slave (bytes)
system.tol2bus.pkt_size_system.cpu0.icache.mem_side::system.l2.cpu_side     19440320                       # Cumulative packet size per connected master and slave (bytes)
system.tol2bus.pkt_size_system.cpu0.dcache.mem_side::system.l2.cpu_side   8093348992                       # Cumulative packet size per connected master and slave (bytes)
system.tol2bus.pkt_size_system.cpu1.icache.mem_side::system.l2.cpu_side      4444800                       # Cumulative packet size per connected master and slave (bytes)
system.tol2bus.pkt_size_system.cpu1.dcache.mem_side::system.l2.cpu_side   8088062144                       # Cumulative packet size per connected master and slave (bytes)
system.tol2bus.pkt_size_system.cpu2.icache.mem_side::system.l2.cpu_side      4525440                       # Cumulative packet size per connected master and slave (bytes)
system.tol2bus.pkt_size_system.cpu2.dcache.mem_side::system.l2.cpu_side   8086708096                       # Cumulative packet size per connected master and slave (bytes)
system.tol2bus.pkt_size_system.cpu3.icache.mem_side::system.l2.cpu_side      4539648                       # Cumulative packet size per connected master and slave (bytes)
system.tol2bus.pkt_size_system.cpu3.dcache.mem_side::system.l2.cpu_side   8085085760                       # Cumulative packet size per connected master and slave (bytes)
system.tol2bus.pkt_size::total            32386155200                       # Cumulative packet size per connected master and slave (bytes)
system.tol2bus.snoops                       726539373                       # Total snoops (count)
system.tol2bus.snoopTraffic                 371164480                       # Total snoop traffic (bytes)
system.tol2bus.snoop_fanout::samples        996985944                       # Request fanout histogram
system.tol2bus.snoop_fanout::mean            0.292834                       # Request fanout histogram
system.tol2bus.snoop_fanout::stdev           0.520503                       # Request fanout histogram
system.tol2bus.snoop_fanout::underflows             0      0.00%      0.00% # Request fanout histogram
system.tol2bus.snoop_fanout::0              731030927     73.32%     73.32% # Request fanout histogram
system.tol2bus.snoop_fanout::1              244976904     24.57%     97.90% # Request fanout histogram
system.tol2bus.snoop_fanout::2               16770135      1.68%     99.58% # Request fanout histogram
system.tol2bus.snoop_fanout::3                3397945      0.34%     99.92% # Request fanout histogram
system.tol2bus.snoop_fanout::4                 810033      0.08%    100.00% # Request fanout histogram
system.tol2bus.snoop_fanout::5                      0      0.00%    100.00% # Request fanout histogram
system.tol2bus.snoop_fanout::6                      0      0.00%    100.00% # Request fanout histogram
system.tol2bus.snoop_fanout::7                      0      0.00%    100.00% # Request fanout histogram
system.tol2bus.snoop_fanout::8                      0      0.00%    100.00% # Request fanout histogram
system.tol2bus.snoop_fanout::overflows              0      0.00%    100.00% # Request fanout histogram
system.tol2bus.snoop_fanout::min_value              0                       # Request fanout histogram
system.tol2bus.snoop_fanout::max_value              4                       # Request fanout histogram
system.tol2bus.snoop_fanout::total          996985944                       # Request fanout histogram
system.tol2bus.reqLayer0.occupancy       549084053586                       # Layer occupancy (ticks)
system.tol2bus.reqLayer0.utilization             26.5                       # Layer utilization (%)
system.tol2bus.respLayer5.occupancy       95279655466                       # Layer occupancy (ticks)
system.tol2bus.respLayer5.utilization             4.6                       # Layer utilization (%)
system.tol2bus.respLayer4.occupancy          55079873                       # Layer occupancy (ticks)
system.tol2bus.respLayer4.utilization             0.0                       # Layer utilization (%)
system.tol2bus.respLayer7.occupancy       95262528931                       # Layer occupancy (ticks)
system.tol2bus.respLayer7.utilization             4.6                       # Layer utilization (%)
system.tol2bus.respLayer6.occupancy          55230128                       # Layer occupancy (ticks)
system.tol2bus.respLayer6.utilization             0.0                       # Layer utilization (%)
system.tol2bus.respLayer1.occupancy       95361941764                       # Layer occupancy (ticks)
system.tol2bus.respLayer1.utilization             4.6                       # Layer utilization (%)
system.tol2bus.respLayer0.occupancy         228329417                       # Layer occupancy (ticks)
system.tol2bus.respLayer0.utilization             0.0                       # Layer utilization (%)
system.tol2bus.respLayer3.occupancy       95297250033                       # Layer occupancy (ticks)
system.tol2bus.respLayer3.utilization             4.6                       # Layer utilization (%)
system.tol2bus.respLayer2.occupancy          53789153                       # Layer occupancy (ticks)
system.tol2bus.respLayer2.utilization             0.0                       # Layer utilization (%)
system.tol2bus.snoopLayer0.occupancy           285192                       # Layer occupancy (ticks)
system.tol2bus.snoopLayer0.utilization            0.0                       # Layer utilization (%)

---------- End Simulation Statistics   ----------
