<<<<<<< HEAD
gem5 Simulator System.  http://gem5.org
gem5 is copyrighted software; use the --copyright option for details.

gem5 compiled Mar 27 2020 00:28:59
gem5 started Apr 27 2020 10:24:34
gem5 executing on muhammet, pid 28169
command line: /home/muhammet/Desktop/gem5/build/RISCV/gem5.fast -re --outdir=/home/muhammet/Desktop/gem5/results/pr/dblp.el/prefetch_SignaturePathPrefetcher_BRRIPRP --stdout-file=output.txt --stderr-file=error.txt /home/muhammet/Desktop/gem5/configs/example/my_se.py -c /home/muhammet/Desktop/gem5/gapbs/pr -o '-f /home/muhammet/Desktop/gem5/gapbs/test/graphs/dblp.el' --caches --l1d_size=2kB --l1i_size=2kB --cpu-type=DerivO3CPU -n 4 --mem-size=512MB --l2cache --l2_size=4kB --l2-hwp-type=SignaturePathPrefetcher --l2-replacement-policy=BRRIPRP --l1i_mshrs=4 --l1d_mshrs=4 --l2_mshrs=20 --l1i_write_buffers=8 --l1d_write_buffers=8 --l2_write_buffers=8

Warning: l2-hwp-type is set ( SignaturePathPrefetcher ), but the current l2 has a default Hardware Prefetcher of type <class 'm5.params.NullSimObject'> , using the specified by the flag option.
Global frequency set at 1000000000000 ticks per second
**** REAL SIMULATION ****
Exiting @ tick 0 because user interrupt received
=======
Redirecting stdout to /vol1/msoyturk/gem5/results/pr/dblp.el/prefetch_SignaturePathPrefetcher_BRRIPRP/output.txt
Redirecting stderr to /vol1/msoyturk/gem5/results/pr/dblp.el/prefetch_SignaturePathPrefetcher_BRRIPRP/error.txt
gem5 Simulator System.  http://gem5.org
gem5 is copyrighted software; use the --copyright option for details.

gem5 compiled Apr 26 2020 13:32:47
gem5 started Apr 26 2020 21:17:22
gem5 executing on draco, pid 8309
command line: /vol1/msoyturk/gem5/build/RISCV/gem5.fast -re --outdir=/vol1/msoyturk/gem5/results/pr/dblp.el/prefetch_SignaturePathPrefetcher_BRRIPRP --stdout-file=output.txt --stderr-file=error.txt /vol1/msoyturk/gem5/configs/example/my_se.py -c /vol1/msoyturk/gem5/gapbs/pr -o '-f /vol1/msoyturk/gem5/gapbs/test/graphs/dblp.el' --caches --l1d_size=2kB --l1i_size=2kB --cpu-type=DerivO3CPU -n 4 --mem-size=512MB --l2cache --l2_size=4kB --l2-hwp-type=SignaturePathPrefetcher --l2-replacement-policy=BRRIPRP --l1i_mshrs=4 --l1d_mshrs=4 --l2_mshrs=20 --l1i_write_buffers=8 --l1d_write_buffers=8 --l2_write_buffers=8

info: Standard input is not a terminal, disabling listeners.
Warning: l2-hwp-type is set ( SignaturePathPrefetcher ), but the current l2 has a default Hardware Prefetcher of type <class 'm5.params.NullSimObject'> , using the specified by the flag option.
Global frequency set at 1000000000000 ticks per second
**** REAL SIMULATION ****
Read Time:           0.94955
Build Time:          0.21234
Graph has 425957 nodes and 1049866 directed edges for degree: 2
  0    0.614265
  1    0.170890
  2    0.075410
  3    0.032703
  4    0.013619
  5    0.005458
  6    0.002115
  7    0.000799
  8    0.000295
  9    0.000107
 10    0.000039
Trial Time:          0.20603
  0    0.614265
  1    0.170890
  2    0.075410
  3    0.032703
  4    0.013619
  5    0.005458
  6    0.002115
  7    0.000799
  8    0.000295
  9    0.000107
 10    0.000039
Trial Time:          0.20611
  0    0.614265
  1    0.170890
  2    0.075410
  3    0.032703
  4    0.013619
  5    0.005458
  6    0.002115
  7    0.000799
  8    0.000295
  9    0.000107
 10    0.000039
Trial Time:          0.20624
  0    0.614265
  1    0.170890
  2    0.075410
  3    0.032703
  4    0.013619
  5    0.005458
  6    0.002115
  7    0.000799
  8    0.000295
  9    0.000107
 10    0.000039
Trial Time:          0.20618
  0    0.614265
  1    0.170890
  2    0.075410
  3    0.032703
  4    0.013619
  5    0.005458
  6    0.002115
  7    0.000799
  8    0.000295
  9    0.000107
 10    0.000039
Trial Time:          0.20616
  0    0.614265
  1    0.170890
  2    0.075410
  3    0.032703
  4    0.013619
  5    0.005458
  6    0.002115
  7    0.000799
  8    0.000295
  9    0.000107
 10    0.000039
Trial Time:          0.20629
  0    0.614265
  1    0.170890
  2    0.075410
  3    0.032703
  4    0.013619
  5    0.005458
  6    0.002115
  7    0.000799
  8    0.000295
  9    0.000107
 10    0.000039
Trial Time:          0.20636
  0    0.614265
  1    0.170890
  2    0.075410
  3    0.032703
  4    0.013619
  5    0.005458
  6    0.002115
  7    0.000799
  8    0.000295
  9    0.000107
 10    0.000039
Trial Time:          0.20621
  0    0.614265
  1    0.170890
  2    0.075410
  3    0.032703
  4    0.013619
  5    0.005458
  6    0.002115
  7    0.000799
  8    0.000295
  9    0.000107
 10    0.000039
Trial Time:          0.20634
  0    0.614265
  1    0.170890
  2    0.075410
  3    0.032703
  4    0.013619
  5    0.005458
  6    0.002115
  7    0.000799
  8    0.000295
  9    0.000107
 10    0.000039
Trial Time:          0.20628
  0    0.614265
  1    0.170890
  2    0.075410
  3    0.032703
  4    0.013619
  5    0.005458
  6    0.002115
  7    0.000799
  8    0.000295
  9    0.000107
 10    0.000039
Trial Time:          0.20640
  0    0.614265
  1    0.170890
  2    0.075410
  3    0.032703
  4    0.013619
  5    0.005458
  6    0.002115
  7    0.000799
  8    0.000295
  9    0.000107
 10    0.000039
Trial Time:          0.20633
  0    0.614265
  1    0.170890
  2    0.075410
  3    0.032703
  4    0.013619
  5    0.005458
  6    0.002115
  7    0.000799
  8    0.000295
  9    0.000107
 10    0.000039
Trial Time:          0.20622
  0    0.614265
  1    0.170890
  2    0.075410
  3    0.032703
  4    0.013619
  5    0.005458
  6    0.002115
  7    0.000799
  8    0.000295
  9    0.000107
 10    0.000039
Trial Time:          0.20629
  0    0.614265
  1    0.170890
  2    0.075410
  3    0.032703
  4    0.013619
  5    0.005458
  6    0.002115
  7    0.000799
  8    0.000295
  9    0.000107
 10    0.000039
Trial Time:          0.20596
  0    0.614265
  1    0.170890
  2    0.075410
  3    0.032703
  4    0.013619
  5    0.005458
  6    0.002115
  7    0.000799
  8    0.000295
  9    0.000107
 10    0.000039
Trial Time:          0.20631
Average Time:        0.20623
Exiting @ tick 4550321637500 because exiting with last active thread context
>>>>>>> 6be7a0502e78ebf80a09b838e3e9c0d652379c93
