
---------- Begin Simulation Statistics ----------
final_tick                               1250338208000                       # Number of ticks from beginning of simulation (restored from checkpoints and never reset)
host_inst_rate                                  65821                       # Simulator instruction rate (inst/s)
host_mem_usage                                 703532                       # Number of bytes of host memory used
host_op_rate                                    66014                       # Simulator op (including micro ops) rate (op/s)
host_seconds                                 21826.10                       # Real time elapsed on the host
host_tick_rate                               57286387                       # Simulator tick rate (ticks/s)
sim_freq                                 1000000000000                       # Frequency of simulated ticks
sim_insts                                  1436617902                       # Number of instructions simulated
sim_ops                                    1440821669                       # Number of ops (including micro ops) simulated
sim_seconds                                  1.250338                       # Number of seconds simulated
sim_ticks                                1250338208000                       # Number of ticks simulated
system.cpu0.branchPred.BTBCorrect                   0                       # Number of correct BTB predictions (this stat may not work properly.
system.cpu0.branchPred.BTBHitPct            86.369244                       # BTB Hit Percentage
system.cpu0.branchPred.BTBHits              178693020                       # Number of BTB hits
system.cpu0.branchPred.BTBLookups           206894273                       # Number of BTB lookups
system.cpu0.branchPred.RASInCorrect                 0                       # Number of incorrect RAS predictions.
system.cpu0.branchPred.condIncorrect         11839361                       # Number of conditional branches incorrect
system.cpu0.branchPred.condPredicted        278489912                       # Number of conditional branches predicted
system.cpu0.branchPred.indirectHits          23541761                       # Number of indirect target hits.
system.cpu0.branchPred.indirectLookups       24170327                       # Number of indirect predictor lookups.
system.cpu0.branchPred.indirectMisses          628566                       # Number of indirect misses.
system.cpu0.branchPred.lookups              353459766                       # Number of BP lookups
system.cpu0.branchPred.usedRAS                      0                       # Number of times the RAS was used to get a target.
system.cpu0.branchPredindirectMispredicted      2188145                       # Number of mispredicted indirect branches.
system.cpu0.commit.amos                       2100294                       # Number of atomic instructions committed
system.cpu0.commit.branchMispredicts          7939013                       # The number of times a branch was mispredicted
system.cpu0.commit.branches                 329547938                       # Number of branches committed
system.cpu0.commit.bw_lim_events             47784253                       # number cycles where commit BW limit reached
system.cpu0.commit.commitNonSpecStalls        6309810                       # The number of times commit has been forced to stall to communicate backwards
system.cpu0.commit.commitSquashedInsts       85621531                       # The number of squashed insts skipped by commit
system.cpu0.commit.committedInsts          1316561190                       # Number of instructions committed
system.cpu0.commit.committedOps            1318664782                       # Number of ops (including micro ops) committed
system.cpu0.commit.committed_per_cycle::samples   2326013365                       # Number of insts commited each cycle
system.cpu0.commit.committed_per_cycle::mean     0.566921                       # Number of insts commited each cycle
system.cpu0.commit.committed_per_cycle::stdev     1.417997                       # Number of insts commited each cycle
system.cpu0.commit.committed_per_cycle::underflows            0      0.00%      0.00% # Number of insts commited each cycle
system.cpu0.commit.committed_per_cycle::0   1738198698     74.73%     74.73% # Number of insts commited each cycle
system.cpu0.commit.committed_per_cycle::1    337385222     14.50%     89.23% # Number of insts commited each cycle
system.cpu0.commit.committed_per_cycle::2     81170651      3.49%     92.72% # Number of insts commited each cycle
system.cpu0.commit.committed_per_cycle::3     79896072      3.43%     96.16% # Number of insts commited each cycle
system.cpu0.commit.committed_per_cycle::4     27354345      1.18%     97.33% # Number of insts commited each cycle
system.cpu0.commit.committed_per_cycle::5      3343227      0.14%     97.48% # Number of insts commited each cycle
system.cpu0.commit.committed_per_cycle::6      5323776      0.23%     97.71% # Number of insts commited each cycle
system.cpu0.commit.committed_per_cycle::7      5557121      0.24%     97.95% # Number of insts commited each cycle
system.cpu0.commit.committed_per_cycle::8     47784253      2.05%    100.00% # Number of insts commited each cycle
system.cpu0.commit.committed_per_cycle::overflows            0      0.00%    100.00% # Number of insts commited each cycle
system.cpu0.commit.committed_per_cycle::min_value            0                       # Number of insts commited each cycle
system.cpu0.commit.committed_per_cycle::max_value            8                       # Number of insts commited each cycle
system.cpu0.commit.committed_per_cycle::total   2326013365                       # Number of insts commited each cycle
system.cpu0.commit.fp_insts                        65                       # Number of committed floating point instructions.
system.cpu0.commit.function_calls            25143871                       # Number of function calls committed.
system.cpu0.commit.int_insts               1273932748                       # Number of committed integer instructions.
system.cpu0.commit.loads                    405173257                       # Number of loads committed
system.cpu0.commit.membars                    4203757                       # Number of memory barriers committed
system.cpu0.commit.op_class_0::No_OpClass      4203766      0.32%      0.32% # Class of committed instruction
system.cpu0.commit.op_class_0::IntAlu       742069840     56.27%     56.59% # Class of committed instruction
system.cpu0.commit.op_class_0::IntMult       11831810      0.90%     57.49% # Class of committed instruction
system.cpu0.commit.op_class_0::IntDiv         2099839      0.16%     57.65% # Class of committed instruction
system.cpu0.commit.op_class_0::FloatAdd             0      0.00%     57.65% # Class of committed instruction
system.cpu0.commit.op_class_0::FloatCmp             6      0.00%     57.65% # Class of committed instruction
system.cpu0.commit.op_class_0::FloatCvt            16      0.00%     57.65% # Class of committed instruction
system.cpu0.commit.op_class_0::FloatMult            0      0.00%     57.65% # Class of committed instruction
system.cpu0.commit.op_class_0::FloatMultAcc            0      0.00%     57.65% # Class of committed instruction
system.cpu0.commit.op_class_0::FloatDiv             2      0.00%     57.65% # Class of committed instruction
system.cpu0.commit.op_class_0::FloatMisc            6      0.00%     57.65% # Class of committed instruction
system.cpu0.commit.op_class_0::FloatSqrt            0      0.00%     57.65% # Class of committed instruction
system.cpu0.commit.op_class_0::SimdAdd              0      0.00%     57.65% # Class of committed instruction
system.cpu0.commit.op_class_0::SimdAddAcc            0      0.00%     57.65% # Class of committed instruction
system.cpu0.commit.op_class_0::SimdAlu              0      0.00%     57.65% # Class of committed instruction
system.cpu0.commit.op_class_0::SimdCmp              0      0.00%     57.65% # Class of committed instruction
system.cpu0.commit.op_class_0::SimdCvt              0      0.00%     57.65% # Class of committed instruction
system.cpu0.commit.op_class_0::SimdMisc             0      0.00%     57.65% # Class of committed instruction
system.cpu0.commit.op_class_0::SimdMult             0      0.00%     57.65% # Class of committed instruction
system.cpu0.commit.op_class_0::SimdMultAcc            0      0.00%     57.65% # Class of committed instruction
system.cpu0.commit.op_class_0::SimdShift            0      0.00%     57.65% # Class of committed instruction
system.cpu0.commit.op_class_0::SimdShiftAcc            0      0.00%     57.65% # Class of committed instruction
system.cpu0.commit.op_class_0::SimdDiv              0      0.00%     57.65% # Class of committed instruction
system.cpu0.commit.op_class_0::SimdSqrt             0      0.00%     57.65% # Class of committed instruction
system.cpu0.commit.op_class_0::SimdFloatAdd            0      0.00%     57.65% # Class of committed instruction
system.cpu0.commit.op_class_0::SimdFloatAlu            0      0.00%     57.65% # Class of committed instruction
system.cpu0.commit.op_class_0::SimdFloatCmp            0      0.00%     57.65% # Class of committed instruction
system.cpu0.commit.op_class_0::SimdFloatCvt            0      0.00%     57.65% # Class of committed instruction
system.cpu0.commit.op_class_0::SimdFloatDiv            0      0.00%     57.65% # Class of committed instruction
system.cpu0.commit.op_class_0::SimdFloatMisc            0      0.00%     57.65% # Class of committed instruction
system.cpu0.commit.op_class_0::SimdFloatMult            0      0.00%     57.65% # Class of committed instruction
system.cpu0.commit.op_class_0::SimdFloatMultAcc            0      0.00%     57.65% # Class of committed instruction
system.cpu0.commit.op_class_0::SimdFloatSqrt            0      0.00%     57.65% # Class of committed instruction
system.cpu0.commit.op_class_0::SimdReduceAdd            0      0.00%     57.65% # Class of committed instruction
system.cpu0.commit.op_class_0::SimdReduceAlu            0      0.00%     57.65% # Class of committed instruction
system.cpu0.commit.op_class_0::SimdReduceCmp            0      0.00%     57.65% # Class of committed instruction
system.cpu0.commit.op_class_0::SimdFloatReduceAdd            0      0.00%     57.65% # Class of committed instruction
system.cpu0.commit.op_class_0::SimdFloatReduceCmp            0      0.00%     57.65% # Class of committed instruction
system.cpu0.commit.op_class_0::SimdAes              0      0.00%     57.65% # Class of committed instruction
system.cpu0.commit.op_class_0::SimdAesMix            0      0.00%     57.65% # Class of committed instruction
system.cpu0.commit.op_class_0::SimdSha1Hash            0      0.00%     57.65% # Class of committed instruction
system.cpu0.commit.op_class_0::SimdSha1Hash2            0      0.00%     57.65% # Class of committed instruction
system.cpu0.commit.op_class_0::SimdSha256Hash            0      0.00%     57.65% # Class of committed instruction
system.cpu0.commit.op_class_0::SimdSha256Hash2            0      0.00%     57.65% # Class of committed instruction
system.cpu0.commit.op_class_0::SimdShaSigma2            0      0.00%     57.65% # Class of committed instruction
system.cpu0.commit.op_class_0::SimdShaSigma3            0      0.00%     57.65% # Class of committed instruction
system.cpu0.commit.op_class_0::SimdPredAlu            0      0.00%     57.65% # Class of committed instruction
system.cpu0.commit.op_class_0::MemRead      407273539     30.89%     88.53% # Class of committed instruction
system.cpu0.commit.op_class_0::MemWrite     151185923     11.47%    100.00% # Class of committed instruction
system.cpu0.commit.op_class_0::FloatMemRead           12      0.00%    100.00% # Class of committed instruction
system.cpu0.commit.op_class_0::FloatMemWrite           23      0.00%    100.00% # Class of committed instruction
system.cpu0.commit.op_class_0::IprAccess            0      0.00%    100.00% # Class of committed instruction
system.cpu0.commit.op_class_0::InstPrefetch            0      0.00%    100.00% # Class of committed instruction
system.cpu0.commit.op_class_0::total       1318664782                       # Class of committed instruction
system.cpu0.commit.refs                     558459497                       # Number of memory references committed
system.cpu0.commit.swp_count                        0                       # Number of s/w prefetches committed
system.cpu0.commit.vec_insts                        0                       # Number of committed Vector instructions.
system.cpu0.committedInsts                 1316561190                       # Number of Instructions Simulated
system.cpu0.committedOps                   1318664782                       # Number of Ops (including micro ops) Simulated
system.cpu0.cpi                              1.891911                       # CPI: Cycles Per Instruction
system.cpu0.cpi_total                        1.891911                       # CPI: Total CPI of All Threads
system.cpu0.decode.BlockedCycles            500730827                       # Number of cycles decode is blocked
system.cpu0.decode.BranchMispred              3951854                       # Number of times decode detected a branch misprediction
system.cpu0.decode.BranchResolved           176228575                       # Number of times decode resolved a branch
system.cpu0.decode.DecodedInsts            1422975866                       # Number of instructions handled by decode
system.cpu0.decode.IdleCycles               831080339                       # Number of cycles decode is idle
system.cpu0.decode.RunCycles                995062986                       # Number of cycles decode is running
system.cpu0.decode.SquashCycles               7952317                       # Number of cycles decode is squashing
system.cpu0.decode.SquashedInsts             11780676                       # Number of squashed instructions handled by decode
system.cpu0.decode.UnblockCycles              7310721                       # Number of cycles decode is unblocking
system.cpu0.dtb.accesses                            0                       # DTB accesses
system.cpu0.dtb.hits                                0                       # DTB hits
system.cpu0.dtb.misses                              0                       # DTB misses
system.cpu0.dtb.read_accesses                       0                       # DTB read accesses
system.cpu0.dtb.read_hits                           0                       # DTB read hits
system.cpu0.dtb.read_misses                         0                       # DTB read misses
system.cpu0.dtb.write_accesses                      0                       # DTB write accesses
system.cpu0.dtb.write_hits                          0                       # DTB write hits
system.cpu0.dtb.write_misses                        0                       # DTB write misses
system.cpu0.fetch.Branches                  353459766                       # Number of branches that fetch encountered
system.cpu0.fetch.CacheLines                256297682                       # Number of cache lines fetched
system.cpu0.fetch.Cycles                   1502317213                       # Number of cycles fetch has run and was not squashing or blocked
system.cpu0.fetch.IcacheSquashes              4033593                       # Number of outstanding Icache misses that were squashed
system.cpu0.fetch.IcacheWaitRetryStallCycles          222                       # Number of stall cycles due to full MSHR
system.cpu0.fetch.Insts                    1444255543                       # Number of instructions fetch has processed
system.cpu0.fetch.MiscStallCycles                 129                       # Number of cycles fetch has spent waiting on interrupts, or bad addresses, or out of MSHRs
system.cpu0.fetch.PendingTrapStallCycles           66                       # Number of stall cycles due to pending traps
system.cpu0.fetch.SquashCycles               23705352                       # Number of cycles fetch has spent squashing
system.cpu0.fetch.branchRate                 0.141905                       # Number of branch fetches per cycle
system.cpu0.fetch.icacheStallCycles         827966884                       # Number of cycles fetch is stalled on an Icache miss
system.cpu0.fetch.predictedBranches         202234781                       # Number of branches that fetch has predicted taken
system.cpu0.fetch.rate                       0.579832                       # Number of inst fetches per cycle
system.cpu0.fetch.rateDist::samples        2342137190                       # Number of instructions fetched each cycle (Total)
system.cpu0.fetch.rateDist::mean             0.617539                       # Number of instructions fetched each cycle (Total)
system.cpu0.fetch.rateDist::stdev            0.862789                       # Number of instructions fetched each cycle (Total)
system.cpu0.fetch.rateDist::underflows              0      0.00%      0.00% # Number of instructions fetched each cycle (Total)
system.cpu0.fetch.rateDist::0              1297680185     55.41%     55.41% # Number of instructions fetched each cycle (Total)
system.cpu0.fetch.rateDist::1               780087585     33.31%     88.71% # Number of instructions fetched each cycle (Total)
system.cpu0.fetch.rateDist::2               162015015      6.92%     95.63% # Number of instructions fetched each cycle (Total)
system.cpu0.fetch.rateDist::3                81080712      3.46%     99.09% # Number of instructions fetched each cycle (Total)
system.cpu0.fetch.rateDist::4                11890766      0.51%     99.60% # Number of instructions fetched each cycle (Total)
system.cpu0.fetch.rateDist::5                 6969283      0.30%     99.90% # Number of instructions fetched each cycle (Total)
system.cpu0.fetch.rateDist::6                  307988      0.01%     99.91% # Number of instructions fetched each cycle (Total)
system.cpu0.fetch.rateDist::7                 2101703      0.09%    100.00% # Number of instructions fetched each cycle (Total)
system.cpu0.fetch.rateDist::8                    3953      0.00%    100.00% # Number of instructions fetched each cycle (Total)
system.cpu0.fetch.rateDist::overflows               0      0.00%    100.00% # Number of instructions fetched each cycle (Total)
system.cpu0.fetch.rateDist::min_value               0                       # Number of instructions fetched each cycle (Total)
system.cpu0.fetch.rateDist::max_value               8                       # Number of instructions fetched each cycle (Total)
system.cpu0.fetch.rateDist::total          2342137190                       # Number of instructions fetched each cycle (Total)
system.cpu0.fp_regfile_reads                       56                       # number of floating regfile reads
system.cpu0.fp_regfile_writes                      35                       # number of floating regfile writes
system.cpu0.idleCycles                      148679703                       # Total number of cycles that the CPU has spent unscheduled due to idling
system.cpu0.iew.branchMispredicts             8067661                       # Number of branch mispredicts detected at execute
system.cpu0.iew.exec_branches               340382604                       # Number of branches executed
system.cpu0.iew.exec_nop                            0                       # number of nop insts executed
system.cpu0.iew.exec_rate                    0.559513                       # Inst execution rate
system.cpu0.iew.exec_refs                   604855301                       # number of memory reference insts executed
system.cpu0.iew.exec_stores                 162036530                       # Number of stores executed
system.cpu0.iew.exec_swp                            0                       # number of swp insts executed
system.cpu0.iew.iewBlockCycles              389516226                       # Number of cycles IEW is blocking
system.cpu0.iew.iewDispLoadInsts            440406837                       # Number of dispatched load instructions
system.cpu0.iew.iewDispNonSpecInsts           2106518                       # Number of dispatched non-speculative instructions
system.cpu0.iew.iewDispSquashedInsts          4162181                       # Number of squashed instructions skipped by dispatch
system.cpu0.iew.iewDispStoreInsts           162671769                       # Number of dispatched store instructions
system.cpu0.iew.iewDispatchedInsts         1404225716                       # Number of instructions dispatched to IQ
system.cpu0.iew.iewExecLoadInsts            442818771                       # Number of load instructions executed
system.cpu0.iew.iewExecSquashedInsts          8664739                       # Number of squashed instructions skipped in execute
system.cpu0.iew.iewExecutedInsts           1393643397                       # Number of executed instructions
system.cpu0.iew.iewIQFullEvents               2087354                       # Number of times the IQ has become full, causing a stall
system.cpu0.iew.iewIdleCycles                       0                       # Number of cycles IEW is idle
system.cpu0.iew.iewLSQFullEvents             19039614                       # Number of times the LSQ has become full, causing a stall
system.cpu0.iew.iewSquashCycles               7952317                       # Number of cycles IEW is squashing
system.cpu0.iew.iewUnblockCycles             23543333                       # Number of cycles IEW is unblocking
system.cpu0.iew.lsq.thread0.blockedLoads            0                       # Number of blocked loads due to partial load-store forwarding
system.cpu0.iew.lsq.thread0.cacheBlocked       228304                       # Number of times an access to memory failed due to the cache being blocked
system.cpu0.iew.lsq.thread0.forwLoads        26662661                       # Number of loads that had data forwarded from stores
system.cpu0.iew.lsq.thread0.ignoredResponses        39014                       # Number of memory responses ignored because the instruction is squashed
system.cpu0.iew.lsq.thread0.invAddrLoads            0                       # Number of loads ignored due to an invalid address
system.cpu0.iew.lsq.thread0.invAddrSwpfs            0                       # Number of software prefetches ignored due to an invalid address
system.cpu0.iew.lsq.thread0.memOrderViolation        13474                       # Number of memory ordering violations
system.cpu0.iew.lsq.thread0.rescheduledLoads      6752737                       # Number of loads that were rescheduled
system.cpu0.iew.lsq.thread0.squashedLoads     35233580                       # Number of loads squashed
system.cpu0.iew.lsq.thread0.squashedStores      9385529                       # Number of stores squashed
system.cpu0.iew.memOrderViolationEvents         13474                       # Number of memory order violations
system.cpu0.iew.predictedNotTakenIncorrect       753481                       # Number of branches that were predicted not taken incorrectly
system.cpu0.iew.predictedTakenIncorrect       7314180                       # Number of branches that were predicted taken incorrectly
system.cpu0.iew.wb_consumers                621070891                       # num instructions consuming a value
system.cpu0.iew.wb_count                   1381312661                       # cumulative count of insts written-back
system.cpu0.iew.wb_fanout                    0.854955                       # average fanout of values written-back
system.cpu0.iew.wb_producers                530987923                       # num instructions producing a value
system.cpu0.iew.wb_rate                      0.554562                       # insts written-back per cycle
system.cpu0.iew.wb_sent                    1381422643                       # cumulative count of insts sent to commit
system.cpu0.int_regfile_reads              1711202324                       # number of integer regfile reads
system.cpu0.int_regfile_writes              888744855                       # number of integer regfile writes
system.cpu0.ipc                              0.528566                       # IPC: Instructions Per Cycle
system.cpu0.ipc_total                        0.528566                       # IPC: Total IPC of All Threads
system.cpu0.iq.FU_type_0::No_OpClass          4205641      0.30%      0.30% # Type of FU issued
system.cpu0.iq.FU_type_0::IntAlu            777724422     55.46%     55.76% # Type of FU issued
system.cpu0.iq.FU_type_0::IntMult            11834066      0.84%     56.60% # Type of FU issued
system.cpu0.iq.FU_type_0::IntDiv              2100436      0.15%     56.75% # Type of FU issued
system.cpu0.iq.FU_type_0::FloatAdd                  0      0.00%     56.75% # Type of FU issued
system.cpu0.iq.FU_type_0::FloatCmp                  6      0.00%     56.75% # Type of FU issued
system.cpu0.iq.FU_type_0::FloatCvt                 16      0.00%     56.75% # Type of FU issued
system.cpu0.iq.FU_type_0::FloatMult                 0      0.00%     56.75% # Type of FU issued
system.cpu0.iq.FU_type_0::FloatMultAcc              0      0.00%     56.75% # Type of FU issued
system.cpu0.iq.FU_type_0::FloatDiv                  2      0.00%     56.75% # Type of FU issued
system.cpu0.iq.FU_type_0::FloatMisc                 6      0.00%     56.75% # Type of FU issued
system.cpu0.iq.FU_type_0::FloatSqrt                 0      0.00%     56.75% # Type of FU issued
system.cpu0.iq.FU_type_0::SimdAdd                   0      0.00%     56.75% # Type of FU issued
system.cpu0.iq.FU_type_0::SimdAddAcc                0      0.00%     56.75% # Type of FU issued
system.cpu0.iq.FU_type_0::SimdAlu                   0      0.00%     56.75% # Type of FU issued
system.cpu0.iq.FU_type_0::SimdCmp                   0      0.00%     56.75% # Type of FU issued
system.cpu0.iq.FU_type_0::SimdCvt                   0      0.00%     56.75% # Type of FU issued
system.cpu0.iq.FU_type_0::SimdMisc                  0      0.00%     56.75% # Type of FU issued
system.cpu0.iq.FU_type_0::SimdMult                  0      0.00%     56.75% # Type of FU issued
system.cpu0.iq.FU_type_0::SimdMultAcc               0      0.00%     56.75% # Type of FU issued
system.cpu0.iq.FU_type_0::SimdShift                 0      0.00%     56.75% # Type of FU issued
system.cpu0.iq.FU_type_0::SimdShiftAcc              0      0.00%     56.75% # Type of FU issued
system.cpu0.iq.FU_type_0::SimdDiv                   0      0.00%     56.75% # Type of FU issued
system.cpu0.iq.FU_type_0::SimdSqrt                  0      0.00%     56.75% # Type of FU issued
system.cpu0.iq.FU_type_0::SimdFloatAdd              0      0.00%     56.75% # Type of FU issued
system.cpu0.iq.FU_type_0::SimdFloatAlu              0      0.00%     56.75% # Type of FU issued
system.cpu0.iq.FU_type_0::SimdFloatCmp              0      0.00%     56.75% # Type of FU issued
system.cpu0.iq.FU_type_0::SimdFloatCvt              0      0.00%     56.75% # Type of FU issued
system.cpu0.iq.FU_type_0::SimdFloatDiv              0      0.00%     56.75% # Type of FU issued
system.cpu0.iq.FU_type_0::SimdFloatMisc             0      0.00%     56.75% # Type of FU issued
system.cpu0.iq.FU_type_0::SimdFloatMult             0      0.00%     56.75% # Type of FU issued
system.cpu0.iq.FU_type_0::SimdFloatMultAcc            0      0.00%     56.75% # Type of FU issued
system.cpu0.iq.FU_type_0::SimdFloatSqrt             0      0.00%     56.75% # Type of FU issued
system.cpu0.iq.FU_type_0::SimdReduceAdd             0      0.00%     56.75% # Type of FU issued
system.cpu0.iq.FU_type_0::SimdReduceAlu             0      0.00%     56.75% # Type of FU issued
system.cpu0.iq.FU_type_0::SimdReduceCmp             0      0.00%     56.75% # Type of FU issued
system.cpu0.iq.FU_type_0::SimdFloatReduceAdd            0      0.00%     56.75% # Type of FU issued
system.cpu0.iq.FU_type_0::SimdFloatReduceCmp            0      0.00%     56.75% # Type of FU issued
system.cpu0.iq.FU_type_0::SimdAes                   0      0.00%     56.75% # Type of FU issued
system.cpu0.iq.FU_type_0::SimdAesMix                0      0.00%     56.75% # Type of FU issued
system.cpu0.iq.FU_type_0::SimdSha1Hash              0      0.00%     56.75% # Type of FU issued
system.cpu0.iq.FU_type_0::SimdSha1Hash2             0      0.00%     56.75% # Type of FU issued
system.cpu0.iq.FU_type_0::SimdSha256Hash            0      0.00%     56.75% # Type of FU issued
system.cpu0.iq.FU_type_0::SimdSha256Hash2            0      0.00%     56.75% # Type of FU issued
system.cpu0.iq.FU_type_0::SimdShaSigma2             0      0.00%     56.75% # Type of FU issued
system.cpu0.iq.FU_type_0::SimdShaSigma3             0      0.00%     56.75% # Type of FU issued
system.cpu0.iq.FU_type_0::SimdPredAlu               0      0.00%     56.75% # Type of FU issued
system.cpu0.iq.FU_type_0::MemRead           446383374     31.83%     88.59% # Type of FU issued
system.cpu0.iq.FU_type_0::MemWrite          160060129     11.41%    100.00% # Type of FU issued
system.cpu0.iq.FU_type_0::FloatMemRead             16      0.00%    100.00% # Type of FU issued
system.cpu0.iq.FU_type_0::FloatMemWrite            23      0.00%    100.00% # Type of FU issued
system.cpu0.iq.FU_type_0::IprAccess                 0      0.00%    100.00% # Type of FU issued
system.cpu0.iq.FU_type_0::InstPrefetch              0      0.00%    100.00% # Type of FU issued
system.cpu0.iq.FU_type_0::total            1402308137                       # Type of FU issued
system.cpu0.iq.fp_alu_accesses                     72                       # Number of floating point alu accesses
system.cpu0.iq.fp_inst_queue_reads                141                       # Number of floating instruction queue reads
system.cpu0.iq.fp_inst_queue_wakeup_accesses           69                       # Number of floating instruction queue wakeup accesses
system.cpu0.iq.fp_inst_queue_writes                73                       # Number of floating instruction queue writes
system.cpu0.iq.fu_busy_cnt                    3189153                       # FU busy when requested
system.cpu0.iq.fu_busy_rate                  0.002274                       # FU busy rate (busy events/executed inst)
system.cpu0.iq.fu_full::No_OpClass                  0      0.00%      0.00% # attempts to use FU when none available
system.cpu0.iq.fu_full::IntAlu                 616308     19.33%     19.33% # attempts to use FU when none available
system.cpu0.iq.fu_full::IntMult                     0      0.00%     19.33% # attempts to use FU when none available
system.cpu0.iq.fu_full::IntDiv                      0      0.00%     19.33% # attempts to use FU when none available
system.cpu0.iq.fu_full::FloatAdd                    0      0.00%     19.33% # attempts to use FU when none available
system.cpu0.iq.fu_full::FloatCmp                    0      0.00%     19.33% # attempts to use FU when none available
system.cpu0.iq.fu_full::FloatCvt                    0      0.00%     19.33% # attempts to use FU when none available
system.cpu0.iq.fu_full::FloatMult                   0      0.00%     19.33% # attempts to use FU when none available
system.cpu0.iq.fu_full::FloatMultAcc                0      0.00%     19.33% # attempts to use FU when none available
system.cpu0.iq.fu_full::FloatDiv                    0      0.00%     19.33% # attempts to use FU when none available
system.cpu0.iq.fu_full::FloatMisc                   0      0.00%     19.33% # attempts to use FU when none available
system.cpu0.iq.fu_full::FloatSqrt                   0      0.00%     19.33% # attempts to use FU when none available
system.cpu0.iq.fu_full::SimdAdd                     0      0.00%     19.33% # attempts to use FU when none available
system.cpu0.iq.fu_full::SimdAddAcc                  0      0.00%     19.33% # attempts to use FU when none available
system.cpu0.iq.fu_full::SimdAlu                     0      0.00%     19.33% # attempts to use FU when none available
system.cpu0.iq.fu_full::SimdCmp                     0      0.00%     19.33% # attempts to use FU when none available
system.cpu0.iq.fu_full::SimdCvt                     0      0.00%     19.33% # attempts to use FU when none available
system.cpu0.iq.fu_full::SimdMisc                    0      0.00%     19.33% # attempts to use FU when none available
system.cpu0.iq.fu_full::SimdMult                    0      0.00%     19.33% # attempts to use FU when none available
system.cpu0.iq.fu_full::SimdMultAcc                 0      0.00%     19.33% # attempts to use FU when none available
system.cpu0.iq.fu_full::SimdShift                   0      0.00%     19.33% # attempts to use FU when none available
system.cpu0.iq.fu_full::SimdShiftAcc                0      0.00%     19.33% # attempts to use FU when none available
system.cpu0.iq.fu_full::SimdDiv                     0      0.00%     19.33% # attempts to use FU when none available
system.cpu0.iq.fu_full::SimdSqrt                    0      0.00%     19.33% # attempts to use FU when none available
system.cpu0.iq.fu_full::SimdFloatAdd                0      0.00%     19.33% # attempts to use FU when none available
system.cpu0.iq.fu_full::SimdFloatAlu                0      0.00%     19.33% # attempts to use FU when none available
system.cpu0.iq.fu_full::SimdFloatCmp                0      0.00%     19.33% # attempts to use FU when none available
system.cpu0.iq.fu_full::SimdFloatCvt                0      0.00%     19.33% # attempts to use FU when none available
system.cpu0.iq.fu_full::SimdFloatDiv                0      0.00%     19.33% # attempts to use FU when none available
system.cpu0.iq.fu_full::SimdFloatMisc               0      0.00%     19.33% # attempts to use FU when none available
system.cpu0.iq.fu_full::SimdFloatMult               0      0.00%     19.33% # attempts to use FU when none available
system.cpu0.iq.fu_full::SimdFloatMultAcc            0      0.00%     19.33% # attempts to use FU when none available
system.cpu0.iq.fu_full::SimdFloatSqrt               0      0.00%     19.33% # attempts to use FU when none available
system.cpu0.iq.fu_full::SimdReduceAdd               0      0.00%     19.33% # attempts to use FU when none available
system.cpu0.iq.fu_full::SimdReduceAlu               0      0.00%     19.33% # attempts to use FU when none available
system.cpu0.iq.fu_full::SimdReduceCmp               0      0.00%     19.33% # attempts to use FU when none available
system.cpu0.iq.fu_full::SimdFloatReduceAdd            0      0.00%     19.33% # attempts to use FU when none available
system.cpu0.iq.fu_full::SimdFloatReduceCmp            0      0.00%     19.33% # attempts to use FU when none available
system.cpu0.iq.fu_full::SimdAes                     0      0.00%     19.33% # attempts to use FU when none available
system.cpu0.iq.fu_full::SimdAesMix                  0      0.00%     19.33% # attempts to use FU when none available
system.cpu0.iq.fu_full::SimdSha1Hash                0      0.00%     19.33% # attempts to use FU when none available
system.cpu0.iq.fu_full::SimdSha1Hash2               0      0.00%     19.33% # attempts to use FU when none available
system.cpu0.iq.fu_full::SimdSha256Hash              0      0.00%     19.33% # attempts to use FU when none available
system.cpu0.iq.fu_full::SimdSha256Hash2             0      0.00%     19.33% # attempts to use FU when none available
system.cpu0.iq.fu_full::SimdShaSigma2               0      0.00%     19.33% # attempts to use FU when none available
system.cpu0.iq.fu_full::SimdShaSigma3               0      0.00%     19.33% # attempts to use FU when none available
system.cpu0.iq.fu_full::SimdPredAlu                 0      0.00%     19.33% # attempts to use FU when none available
system.cpu0.iq.fu_full::MemRead               2022657     63.42%     82.75% # attempts to use FU when none available
system.cpu0.iq.fu_full::MemWrite               550185     17.25%    100.00% # attempts to use FU when none available
system.cpu0.iq.fu_full::FloatMemRead                0      0.00%    100.00% # attempts to use FU when none available
system.cpu0.iq.fu_full::FloatMemWrite               3      0.00%    100.00% # attempts to use FU when none available
system.cpu0.iq.fu_full::IprAccess                   0      0.00%    100.00% # attempts to use FU when none available
system.cpu0.iq.fu_full::InstPrefetch                0      0.00%    100.00% # attempts to use FU when none available
system.cpu0.iq.int_alu_accesses            1401291577                       # Number of integer alu accesses
system.cpu0.iq.int_inst_queue_reads        5150232188                       # Number of integer instruction queue reads
system.cpu0.iq.int_inst_queue_wakeup_accesses   1381312592                       # Number of integer instruction queue wakeup accesses
system.cpu0.iq.int_inst_queue_writes       1489798699                       # Number of integer instruction queue writes
system.cpu0.iq.iqInstsAdded                1397915229                       # Number of instructions added to the IQ (excludes non-spec)
system.cpu0.iq.iqInstsIssued               1402308137                       # Number of instructions issued
system.cpu0.iq.iqNonSpecInstsAdded            6310487                       # Number of non-speculative instructions added to the IQ
system.cpu0.iq.iqSquashedInstsExamined       85560930                       # Number of squashed instructions iterated over during squash; mainly for profiling
system.cpu0.iq.iqSquashedInstsIssued           289713                       # Number of squashed instructions issued
system.cpu0.iq.iqSquashedNonSpecRemoved           677                       # Number of squashed non-spec instructions that were removed
system.cpu0.iq.iqSquashedOperandsExamined     18677417                       # Number of squashed operands that are examined and possibly removed from graph
system.cpu0.iq.issued_per_cycle::samples   2342137190                       # Number of insts issued each cycle
system.cpu0.iq.issued_per_cycle::mean        0.598730                       # Number of insts issued each cycle
system.cpu0.iq.issued_per_cycle::stdev       0.822071                       # Number of insts issued each cycle
system.cpu0.iq.issued_per_cycle::underflows            0      0.00%      0.00% # Number of insts issued each cycle
system.cpu0.iq.issued_per_cycle::0         1324058247     56.53%     56.53% # Number of insts issued each cycle
system.cpu0.iq.issued_per_cycle::1          714724540     30.52%     87.05% # Number of insts issued each cycle
system.cpu0.iq.issued_per_cycle::2          249214683     10.64%     97.69% # Number of insts issued each cycle
system.cpu0.iq.issued_per_cycle::3           38922752      1.66%     99.35% # Number of insts issued each cycle
system.cpu0.iq.issued_per_cycle::4            9033887      0.39%     99.74% # Number of insts issued each cycle
system.cpu0.iq.issued_per_cycle::5            1939295      0.08%     99.82% # Number of insts issued each cycle
system.cpu0.iq.issued_per_cycle::6            3426161      0.15%     99.97% # Number of insts issued each cycle
system.cpu0.iq.issued_per_cycle::7             544014      0.02%     99.99% # Number of insts issued each cycle
system.cpu0.iq.issued_per_cycle::8             273611      0.01%    100.00% # Number of insts issued each cycle
system.cpu0.iq.issued_per_cycle::overflows            0      0.00%    100.00% # Number of insts issued each cycle
system.cpu0.iq.issued_per_cycle::min_value            0                       # Number of insts issued each cycle
system.cpu0.iq.issued_per_cycle::max_value            8                       # Number of insts issued each cycle
system.cpu0.iq.issued_per_cycle::total     2342137190                       # Number of insts issued each cycle
system.cpu0.iq.rate                          0.562991                       # Inst issue rate
system.cpu0.iq.vec_alu_accesses                     0                       # Number of vector alu accesses
system.cpu0.iq.vec_inst_queue_reads                 0                       # Number of vector instruction queue reads
system.cpu0.iq.vec_inst_queue_wakeup_accesses            0                       # Number of vector instruction queue wakeup accesses
system.cpu0.iq.vec_inst_queue_writes                0                       # Number of vector instruction queue writes
system.cpu0.itb.accesses                            0                       # DTB accesses
system.cpu0.itb.hits                                0                       # DTB hits
system.cpu0.itb.misses                              0                       # DTB misses
system.cpu0.itb.read_accesses                       0                       # DTB read accesses
system.cpu0.itb.read_hits                           0                       # DTB read hits
system.cpu0.itb.read_misses                         0                       # DTB read misses
system.cpu0.itb.write_accesses                      0                       # DTB write accesses
system.cpu0.itb.write_hits                          0                       # DTB write hits
system.cpu0.itb.write_misses                        0                       # DTB write misses
system.cpu0.memDep0.conflictingLoads         17193211                       # Number of conflicting loads.
system.cpu0.memDep0.conflictingStores         4252236                       # Number of conflicting stores.
system.cpu0.memDep0.insertedLoads           440406837                       # Number of loads inserted to the mem dependence unit.
system.cpu0.memDep0.insertedStores          162671769                       # Number of stores inserted to the mem dependence unit.
system.cpu0.misc_regfile_reads                   1908                       # number of misc regfile reads
system.cpu0.misc_regfile_writes                    30                       # number of misc regfile writes
system.cpu0.numCycles                      2490816893                       # number of cpu cycles simulated
system.cpu0.numWorkItemsCompleted                   0                       # number of work items this cpu completed
system.cpu0.numWorkItemsStarted                     0                       # number of work items this cpu started
system.cpu0.quiesceCycles                     9859793                       # Total number of cycles that CPU has spent quiesced or waiting for an interrupt
system.cpu0.rename.BlockCycles              431148067                       # Number of cycles rename is blocking
system.cpu0.rename.CommittedMaps            845204409                       # Number of HB maps that are committed
system.cpu0.rename.IQFullEvents              14866552                       # Number of times rename has blocked due to IQ full
system.cpu0.rename.IdleCycles               841276208                       # Number of cycles rename is idle
system.cpu0.rename.LQFullEvents              22188682                       # Number of times rename has blocked due to LQ full
system.cpu0.rename.ROBFullEvents                62466                       # Number of times rename has blocked due to ROB full
system.cpu0.rename.RenameLookups           1737572835                       # Number of register rename lookups that rename has made
system.cpu0.rename.RenamedInsts            1415661575                       # Number of instructions processed by rename
system.cpu0.rename.RenamedOperands          916304464                       # Number of destination operands rename has renamed
system.cpu0.rename.RunCycles                990689816                       # Number of cycles rename is running
system.cpu0.rename.SQFullEvents              33241015                       # Number of times rename has blocked due to SQ full
system.cpu0.rename.SquashCycles               7952317                       # Number of cycles rename is squashing
system.cpu0.rename.UnblockCycles             70750566                       # Number of cycles rename is unblocking
system.cpu0.rename.UndoneMaps                71100050                       # Number of HB maps that are undone due to squashing
system.cpu0.rename.fp_rename_lookups               56                       # Number of floating rename lookups
system.cpu0.rename.int_rename_lookups      1737572779                       # Number of integer rename lookups
system.cpu0.rename.serializeStallCycles        320216                       # count of cycles rename stalled for serializing inst
system.cpu0.rename.serializingInsts              5889                       # count of serializing insts renamed
system.cpu0.rename.skidInsts                 32015116                       # count of insts added to the skid buffer
system.cpu0.rename.tempSerializingInsts          5889                       # count of temporary serializing insts renamed
system.cpu0.rob.rob_reads                  3682491271                       # The number of ROB reads
system.cpu0.rob.rob_writes                 2824729776                       # The number of ROB writes
system.cpu0.timesIdled                       20759229                       # Number of times that the entire CPU went into an idle state and unscheduled itself
system.cpu0.workload.numSyscalls                 1864                       # Number of system calls
system.cpu1.branchPred.BTBCorrect                   0                       # Number of correct BTB predictions (this stat may not work properly.
system.cpu1.branchPred.BTBHitPct            90.507454                       # BTB Hit Percentage
system.cpu1.branchPred.BTBHits               21360391                       # Number of BTB hits
system.cpu1.branchPred.BTBLookups            23600698                       # Number of BTB lookups
system.cpu1.branchPred.RASInCorrect                 0                       # Number of incorrect RAS predictions.
system.cpu1.branchPred.condIncorrect          2826095                       # Number of conditional branches incorrect
system.cpu1.branchPred.condPredicted         31553939                       # Number of conditional branches predicted
system.cpu1.branchPred.indirectHits           1084005                       # Number of indirect target hits.
system.cpu1.branchPred.indirectLookups        1114898                       # Number of indirect predictor lookups.
system.cpu1.branchPred.indirectMisses           30893                       # Number of indirect misses.
system.cpu1.branchPred.lookups               36308245                       # Number of BP lookups
system.cpu1.branchPred.usedRAS                      0                       # Number of times the RAS was used to get a target.
system.cpu1.branchPredindirectMispredicted        47911                       # Number of mispredicted indirect branches.
system.cpu1.commit.amos                       2099995                       # Number of atomic instructions committed
system.cpu1.commit.branchMispredicts          2002935                       # The number of times a branch was mispredicted
system.cpu1.commit.branches                  28117510                       # Number of branches committed
system.cpu1.commit.bw_lim_events              4364526                       # number cycles where commit BW limit reached
system.cpu1.commit.commitNonSpecStalls        6300669                       # The number of times commit has been forced to stall to communicate backwards
system.cpu1.commit.commitSquashedInsts       18466612                       # The number of squashed insts skipped by commit
system.cpu1.commit.committedInsts           120056712                       # Number of instructions committed
system.cpu1.commit.committedOps             122156887                       # Number of ops (including micro ops) committed
system.cpu1.commit.committed_per_cycle::samples    509073771                       # Number of insts commited each cycle
system.cpu1.commit.committed_per_cycle::mean     0.239959                       # Number of insts commited each cycle
system.cpu1.commit.committed_per_cycle::stdev     1.006843                       # Number of insts commited each cycle
system.cpu1.commit.committed_per_cycle::underflows            0      0.00%      0.00% # Number of insts commited each cycle
system.cpu1.commit.committed_per_cycle::0    461481264     90.65%     90.65% # Number of insts commited each cycle
system.cpu1.commit.committed_per_cycle::1     23129184      4.54%     95.19% # Number of insts commited each cycle
system.cpu1.commit.committed_per_cycle::2      7896940      1.55%     96.75% # Number of insts commited each cycle
system.cpu1.commit.committed_per_cycle::3      6897570      1.35%     98.10% # Number of insts commited each cycle
system.cpu1.commit.committed_per_cycle::4      1872988      0.37%     98.47% # Number of insts commited each cycle
system.cpu1.commit.committed_per_cycle::5       835445      0.16%     98.63% # Number of insts commited each cycle
system.cpu1.commit.committed_per_cycle::6      2215250      0.44%     99.07% # Number of insts commited each cycle
system.cpu1.commit.committed_per_cycle::7       380604      0.07%     99.14% # Number of insts commited each cycle
system.cpu1.commit.committed_per_cycle::8      4364526      0.86%    100.00% # Number of insts commited each cycle
system.cpu1.commit.committed_per_cycle::overflows            0      0.00%    100.00% # Number of insts commited each cycle
system.cpu1.commit.committed_per_cycle::min_value            0                       # Number of insts commited each cycle
system.cpu1.commit.committed_per_cycle::max_value            8                       # Number of insts commited each cycle
system.cpu1.commit.committed_per_cycle::total    509073771                       # Number of insts commited each cycle
system.cpu1.commit.fp_insts                        12                       # Number of committed floating point instructions.
system.cpu1.commit.function_calls             1797729                       # Number of function calls committed.
system.cpu1.commit.int_insts                116594190                       # Number of committed integer instructions.
system.cpu1.commit.loads                     30174511                       # Number of loads committed
system.cpu1.commit.membars                    4200113                       # Number of memory barriers committed
system.cpu1.commit.op_class_0::No_OpClass      4200113      3.44%      3.44% # Class of committed instruction
system.cpu1.commit.op_class_0::IntAlu        76661907     62.76%     66.20% # Class of committed instruction
system.cpu1.commit.op_class_0::IntMult             44      0.00%     66.20% # Class of committed instruction
system.cpu1.commit.op_class_0::IntDiv              88      0.00%     66.20% # Class of committed instruction
system.cpu1.commit.op_class_0::FloatAdd             0      0.00%     66.20% # Class of committed instruction
system.cpu1.commit.op_class_0::FloatCmp             0      0.00%     66.20% # Class of committed instruction
system.cpu1.commit.op_class_0::FloatCvt             0      0.00%     66.20% # Class of committed instruction
system.cpu1.commit.op_class_0::FloatMult            0      0.00%     66.20% # Class of committed instruction
system.cpu1.commit.op_class_0::FloatMultAcc            0      0.00%     66.20% # Class of committed instruction
system.cpu1.commit.op_class_0::FloatDiv             0      0.00%     66.20% # Class of committed instruction
system.cpu1.commit.op_class_0::FloatMisc            0      0.00%     66.20% # Class of committed instruction
system.cpu1.commit.op_class_0::FloatSqrt            0      0.00%     66.20% # Class of committed instruction
system.cpu1.commit.op_class_0::SimdAdd              0      0.00%     66.20% # Class of committed instruction
system.cpu1.commit.op_class_0::SimdAddAcc            0      0.00%     66.20% # Class of committed instruction
system.cpu1.commit.op_class_0::SimdAlu              0      0.00%     66.20% # Class of committed instruction
system.cpu1.commit.op_class_0::SimdCmp              0      0.00%     66.20% # Class of committed instruction
system.cpu1.commit.op_class_0::SimdCvt              0      0.00%     66.20% # Class of committed instruction
system.cpu1.commit.op_class_0::SimdMisc             0      0.00%     66.20% # Class of committed instruction
system.cpu1.commit.op_class_0::SimdMult             0      0.00%     66.20% # Class of committed instruction
system.cpu1.commit.op_class_0::SimdMultAcc            0      0.00%     66.20% # Class of committed instruction
system.cpu1.commit.op_class_0::SimdShift            0      0.00%     66.20% # Class of committed instruction
system.cpu1.commit.op_class_0::SimdShiftAcc            0      0.00%     66.20% # Class of committed instruction
system.cpu1.commit.op_class_0::SimdDiv              0      0.00%     66.20% # Class of committed instruction
system.cpu1.commit.op_class_0::SimdSqrt             0      0.00%     66.20% # Class of committed instruction
system.cpu1.commit.op_class_0::SimdFloatAdd            0      0.00%     66.20% # Class of committed instruction
system.cpu1.commit.op_class_0::SimdFloatAlu            0      0.00%     66.20% # Class of committed instruction
system.cpu1.commit.op_class_0::SimdFloatCmp            0      0.00%     66.20% # Class of committed instruction
system.cpu1.commit.op_class_0::SimdFloatCvt            0      0.00%     66.20% # Class of committed instruction
system.cpu1.commit.op_class_0::SimdFloatDiv            0      0.00%     66.20% # Class of committed instruction
system.cpu1.commit.op_class_0::SimdFloatMisc            0      0.00%     66.20% # Class of committed instruction
system.cpu1.commit.op_class_0::SimdFloatMult            0      0.00%     66.20% # Class of committed instruction
system.cpu1.commit.op_class_0::SimdFloatMultAcc            0      0.00%     66.20% # Class of committed instruction
system.cpu1.commit.op_class_0::SimdFloatSqrt            0      0.00%     66.20% # Class of committed instruction
system.cpu1.commit.op_class_0::SimdReduceAdd            0      0.00%     66.20% # Class of committed instruction
system.cpu1.commit.op_class_0::SimdReduceAlu            0      0.00%     66.20% # Class of committed instruction
system.cpu1.commit.op_class_0::SimdReduceCmp            0      0.00%     66.20% # Class of committed instruction
system.cpu1.commit.op_class_0::SimdFloatReduceAdd            0      0.00%     66.20% # Class of committed instruction
system.cpu1.commit.op_class_0::SimdFloatReduceCmp            0      0.00%     66.20% # Class of committed instruction
system.cpu1.commit.op_class_0::SimdAes              0      0.00%     66.20% # Class of committed instruction
system.cpu1.commit.op_class_0::SimdAesMix            0      0.00%     66.20% # Class of committed instruction
system.cpu1.commit.op_class_0::SimdSha1Hash            0      0.00%     66.20% # Class of committed instruction
system.cpu1.commit.op_class_0::SimdSha1Hash2            0      0.00%     66.20% # Class of committed instruction
system.cpu1.commit.op_class_0::SimdSha256Hash            0      0.00%     66.20% # Class of committed instruction
system.cpu1.commit.op_class_0::SimdSha256Hash2            0      0.00%     66.20% # Class of committed instruction
system.cpu1.commit.op_class_0::SimdShaSigma2            0      0.00%     66.20% # Class of committed instruction
system.cpu1.commit.op_class_0::SimdShaSigma3            0      0.00%     66.20% # Class of committed instruction
system.cpu1.commit.op_class_0::SimdPredAlu            0      0.00%     66.20% # Class of committed instruction
system.cpu1.commit.op_class_0::MemRead       32274506     26.42%     92.62% # Class of committed instruction
system.cpu1.commit.op_class_0::MemWrite       9020217      7.38%    100.00% # Class of committed instruction
system.cpu1.commit.op_class_0::FloatMemRead            0      0.00%    100.00% # Class of committed instruction
system.cpu1.commit.op_class_0::FloatMemWrite           12      0.00%    100.00% # Class of committed instruction
system.cpu1.commit.op_class_0::IprAccess            0      0.00%    100.00% # Class of committed instruction
system.cpu1.commit.op_class_0::InstPrefetch            0      0.00%    100.00% # Class of committed instruction
system.cpu1.commit.op_class_0::total        122156887                       # Class of committed instruction
system.cpu1.commit.refs                      41294735                       # Number of memory references committed
system.cpu1.commit.swp_count                        0                       # Number of s/w prefetches committed
system.cpu1.commit.vec_insts                        0                       # Number of committed Vector instructions.
system.cpu1.committedInsts                  120056712                       # Number of Instructions Simulated
system.cpu1.committedOps                    122156887                       # Number of Ops (including micro ops) Simulated
system.cpu1.cpi                              4.278295                       # CPI: Cycles Per Instruction
system.cpu1.cpi_total                        4.278295                       # CPI: Total CPI of All Threads
system.cpu1.decode.BlockedCycles            412944719                       # Number of cycles decode is blocked
system.cpu1.decode.BranchMispred               869940                       # Number of times decode detected a branch misprediction
system.cpu1.decode.BranchResolved            20170608                       # Number of times decode resolved a branch
system.cpu1.decode.DecodedInsts             147373323                       # Number of instructions handled by decode
system.cpu1.decode.IdleCycles                26303354                       # Number of cycles decode is idle
system.cpu1.decode.RunCycles                 66221002                       # Number of cycles decode is running
system.cpu1.decode.SquashCycles               2005221                       # Number of cycles decode is squashing
system.cpu1.decode.SquashedInsts              2121218                       # Number of squashed instructions handled by decode
system.cpu1.decode.UnblockCycles              5252406                       # Number of cycles decode is unblocking
system.cpu1.dtb.accesses                            0                       # DTB accesses
system.cpu1.dtb.hits                                0                       # DTB hits
system.cpu1.dtb.misses                              0                       # DTB misses
system.cpu1.dtb.read_accesses                       0                       # DTB read accesses
system.cpu1.dtb.read_hits                           0                       # DTB read hits
system.cpu1.dtb.read_misses                         0                       # DTB read misses
system.cpu1.dtb.write_accesses                      0                       # DTB write accesses
system.cpu1.dtb.write_hits                          0                       # DTB write hits
system.cpu1.dtb.write_misses                        0                       # DTB write misses
system.cpu1.fetch.Branches                   36308245                       # Number of branches that fetch encountered
system.cpu1.fetch.CacheLines                 23543139                       # Number of cache lines fetched
system.cpu1.fetch.Cycles                    483719581                       # Number of cycles fetch has run and was not squashing or blocked
system.cpu1.fetch.IcacheSquashes               299240                       # Number of outstanding Icache misses that were squashed
system.cpu1.fetch.Insts                     154011059                       # Number of instructions fetch has processed
system.cpu1.fetch.MiscStallCycles                   1                       # Number of cycles fetch has spent waiting on interrupts, or bad addresses, or out of MSHRs
system.cpu1.fetch.SquashCycles                5656762                       # Number of cycles fetch has spent squashing
system.cpu1.fetch.branchRate                 0.070688                       # Number of branch fetches per cycle
system.cpu1.fetch.icacheStallCycles          26178739                       # Number of cycles fetch is stalled on an Icache miss
system.cpu1.fetch.predictedBranches          22444396                       # Number of branches that fetch has predicted taken
system.cpu1.fetch.rate                       0.299844                       # Number of inst fetches per cycle
system.cpu1.fetch.rateDist::samples         512726702                       # Number of instructions fetched each cycle (Total)
system.cpu1.fetch.rateDist::mean             0.304473                       # Number of instructions fetched each cycle (Total)
system.cpu1.fetch.rateDist::stdev            0.739776                       # Number of instructions fetched each cycle (Total)
system.cpu1.fetch.rateDist::underflows              0      0.00%      0.00% # Number of instructions fetched each cycle (Total)
system.cpu1.fetch.rateDist::0               413919933     80.73%     80.73% # Number of instructions fetched each cycle (Total)
system.cpu1.fetch.rateDist::1                62960434     12.28%     93.01% # Number of instructions fetched each cycle (Total)
system.cpu1.fetch.rateDist::2                19631215      3.83%     96.84% # Number of instructions fetched each cycle (Total)
system.cpu1.fetch.rateDist::3                12477924      2.43%     99.27% # Number of instructions fetched each cycle (Total)
system.cpu1.fetch.rateDist::4                 2720205      0.53%     99.80% # Number of instructions fetched each cycle (Total)
system.cpu1.fetch.rateDist::5                  533231      0.10%     99.91% # Number of instructions fetched each cycle (Total)
system.cpu1.fetch.rateDist::6                  480783      0.09%    100.00% # Number of instructions fetched each cycle (Total)
system.cpu1.fetch.rateDist::7                     569      0.00%    100.00% # Number of instructions fetched each cycle (Total)
system.cpu1.fetch.rateDist::8                    2408      0.00%    100.00% # Number of instructions fetched each cycle (Total)
system.cpu1.fetch.rateDist::overflows               0      0.00%    100.00% # Number of instructions fetched each cycle (Total)
system.cpu1.fetch.rateDist::min_value               0                       # Number of instructions fetched each cycle (Total)
system.cpu1.fetch.rateDist::max_value               8                       # Number of instructions fetched each cycle (Total)
system.cpu1.fetch.rateDist::total           512726702                       # Number of instructions fetched each cycle (Total)
system.cpu1.fp_regfile_reads                       12                       # number of floating regfile reads
system.cpu1.idleCycles                         911334                       # Total number of cycles that the CPU has spent unscheduled due to idling
system.cpu1.iew.branchMispredicts             2121916                       # Number of branch mispredicts detected at execute
system.cpu1.iew.exec_branches                30906618                       # Number of branches executed
system.cpu1.iew.exec_nop                            0                       # number of nop insts executed
system.cpu1.iew.exec_rate                    0.262906                       # Inst execution rate
system.cpu1.iew.exec_refs                    45915190                       # number of memory reference insts executed
system.cpu1.iew.exec_stores                  11530203                       # Number of stores executed
system.cpu1.iew.exec_swp                            0                       # number of swp insts executed
system.cpu1.iew.iewBlockCycles              335103274                       # Number of cycles IEW is blocking
system.cpu1.iew.iewDispLoadInsts             34947201                       # Number of dispatched load instructions
system.cpu1.iew.iewDispNonSpecInsts           2100641                       # Number of dispatched non-speculative instructions
system.cpu1.iew.iewDispSquashedInsts          1957614                       # Number of squashed instructions skipped by dispatch
system.cpu1.iew.iewDispStoreInsts            11915992                       # Number of dispatched store instructions
system.cpu1.iew.iewDispatchedInsts          140569055                       # Number of instructions dispatched to IQ
system.cpu1.iew.iewExecLoadInsts             34384987                       # Number of load instructions executed
system.cpu1.iew.iewExecSquashedInsts          1861943                       # Number of squashed instructions skipped in execute
system.cpu1.iew.iewExecutedInsts            135038435                       # Number of executed instructions
system.cpu1.iew.iewIQFullEvents               2144670                       # Number of times the IQ has become full, causing a stall
system.cpu1.iew.iewIdleCycles                       0                       # Number of cycles IEW is idle
system.cpu1.iew.iewLSQFullEvents             11265729                       # Number of times the LSQ has become full, causing a stall
system.cpu1.iew.iewSquashCycles               2005221                       # Number of cycles IEW is squashing
system.cpu1.iew.iewUnblockCycles             15791217                       # Number of cycles IEW is unblocking
system.cpu1.iew.lsq.thread0.blockedLoads            0                       # Number of blocked loads due to partial load-store forwarding
system.cpu1.iew.lsq.thread0.cacheBlocked       123597                       # Number of times an access to memory failed due to the cache being blocked
system.cpu1.iew.lsq.thread0.forwLoads         1124893                       # Number of loads that had data forwarded from stores
system.cpu1.iew.lsq.thread0.ignoredResponses        30090                       # Number of memory responses ignored because the instruction is squashed
system.cpu1.iew.lsq.thread0.invAddrLoads            0                       # Number of loads ignored due to an invalid address
system.cpu1.iew.lsq.thread0.invAddrSwpfs            0                       # Number of software prefetches ignored due to an invalid address
system.cpu1.iew.lsq.thread0.memOrderViolation         3045                       # Number of memory ordering violations
system.cpu1.iew.lsq.thread0.rescheduledLoads        17465                       # Number of loads that were rescheduled
system.cpu1.iew.lsq.thread0.squashedLoads      4772690                       # Number of loads squashed
system.cpu1.iew.lsq.thread0.squashedStores       795768                       # Number of stores squashed
system.cpu1.iew.memOrderViolationEvents          3045                       # Number of memory order violations
system.cpu1.iew.predictedNotTakenIncorrect       547675                       # Number of branches that were predicted not taken incorrectly
system.cpu1.iew.predictedTakenIncorrect       1574241                       # Number of branches that were predicted taken incorrectly
system.cpu1.iew.wb_consumers                 79528710                       # num instructions consuming a value
system.cpu1.iew.wb_count                    133507675                       # cumulative count of insts written-back
system.cpu1.iew.wb_fanout                    0.841024                       # average fanout of values written-back
system.cpu1.iew.wb_producers                 66885578                       # num instructions producing a value
system.cpu1.iew.wb_rate                      0.259926                       # insts written-back per cycle
system.cpu1.iew.wb_sent                     133589852                       # cumulative count of insts sent to commit
system.cpu1.int_regfile_reads               171172091                       # number of integer regfile reads
system.cpu1.int_regfile_writes               90085623                       # number of integer regfile writes
system.cpu1.ipc                              0.233738                       # IPC: Instructions Per Cycle
system.cpu1.ipc_total                        0.233738                       # IPC: Total IPC of All Threads
system.cpu1.iq.FU_type_0::No_OpClass          4200220      3.07%      3.07% # Type of FU issued
system.cpu1.iq.FU_type_0::IntAlu             86244600     63.00%     66.07% # Type of FU issued
system.cpu1.iq.FU_type_0::IntMult                  47      0.00%     66.07% # Type of FU issued
system.cpu1.iq.FU_type_0::IntDiv                   90      0.00%     66.07% # Type of FU issued
system.cpu1.iq.FU_type_0::FloatAdd                  0      0.00%     66.07% # Type of FU issued
system.cpu1.iq.FU_type_0::FloatCmp                  0      0.00%     66.07% # Type of FU issued
system.cpu1.iq.FU_type_0::FloatCvt                  0      0.00%     66.07% # Type of FU issued
system.cpu1.iq.FU_type_0::FloatMult                 0      0.00%     66.07% # Type of FU issued
system.cpu1.iq.FU_type_0::FloatMultAcc              0      0.00%     66.07% # Type of FU issued
system.cpu1.iq.FU_type_0::FloatDiv                  0      0.00%     66.07% # Type of FU issued
system.cpu1.iq.FU_type_0::FloatMisc                 0      0.00%     66.07% # Type of FU issued
system.cpu1.iq.FU_type_0::FloatSqrt                 0      0.00%     66.07% # Type of FU issued
system.cpu1.iq.FU_type_0::SimdAdd                   0      0.00%     66.07% # Type of FU issued
system.cpu1.iq.FU_type_0::SimdAddAcc                0      0.00%     66.07% # Type of FU issued
system.cpu1.iq.FU_type_0::SimdAlu                   0      0.00%     66.07% # Type of FU issued
system.cpu1.iq.FU_type_0::SimdCmp                   0      0.00%     66.07% # Type of FU issued
system.cpu1.iq.FU_type_0::SimdCvt                   0      0.00%     66.07% # Type of FU issued
system.cpu1.iq.FU_type_0::SimdMisc                  0      0.00%     66.07% # Type of FU issued
system.cpu1.iq.FU_type_0::SimdMult                  0      0.00%     66.07% # Type of FU issued
system.cpu1.iq.FU_type_0::SimdMultAcc               0      0.00%     66.07% # Type of FU issued
system.cpu1.iq.FU_type_0::SimdShift                 0      0.00%     66.07% # Type of FU issued
system.cpu1.iq.FU_type_0::SimdShiftAcc              0      0.00%     66.07% # Type of FU issued
system.cpu1.iq.FU_type_0::SimdDiv                   0      0.00%     66.07% # Type of FU issued
system.cpu1.iq.FU_type_0::SimdSqrt                  0      0.00%     66.07% # Type of FU issued
system.cpu1.iq.FU_type_0::SimdFloatAdd              0      0.00%     66.07% # Type of FU issued
system.cpu1.iq.FU_type_0::SimdFloatAlu              0      0.00%     66.07% # Type of FU issued
system.cpu1.iq.FU_type_0::SimdFloatCmp              0      0.00%     66.07% # Type of FU issued
system.cpu1.iq.FU_type_0::SimdFloatCvt              0      0.00%     66.07% # Type of FU issued
system.cpu1.iq.FU_type_0::SimdFloatDiv              0      0.00%     66.07% # Type of FU issued
system.cpu1.iq.FU_type_0::SimdFloatMisc             0      0.00%     66.07% # Type of FU issued
system.cpu1.iq.FU_type_0::SimdFloatMult             0      0.00%     66.07% # Type of FU issued
system.cpu1.iq.FU_type_0::SimdFloatMultAcc            0      0.00%     66.07% # Type of FU issued
system.cpu1.iq.FU_type_0::SimdFloatSqrt             0      0.00%     66.07% # Type of FU issued
system.cpu1.iq.FU_type_0::SimdReduceAdd             0      0.00%     66.07% # Type of FU issued
system.cpu1.iq.FU_type_0::SimdReduceAlu             0      0.00%     66.07% # Type of FU issued
system.cpu1.iq.FU_type_0::SimdReduceCmp             0      0.00%     66.07% # Type of FU issued
system.cpu1.iq.FU_type_0::SimdFloatReduceAdd            0      0.00%     66.07% # Type of FU issued
system.cpu1.iq.FU_type_0::SimdFloatReduceCmp            0      0.00%     66.07% # Type of FU issued
system.cpu1.iq.FU_type_0::SimdAes                   0      0.00%     66.07% # Type of FU issued
system.cpu1.iq.FU_type_0::SimdAesMix                0      0.00%     66.07% # Type of FU issued
system.cpu1.iq.FU_type_0::SimdSha1Hash              0      0.00%     66.07% # Type of FU issued
system.cpu1.iq.FU_type_0::SimdSha1Hash2             0      0.00%     66.07% # Type of FU issued
system.cpu1.iq.FU_type_0::SimdSha256Hash            0      0.00%     66.07% # Type of FU issued
system.cpu1.iq.FU_type_0::SimdSha256Hash2            0      0.00%     66.07% # Type of FU issued
system.cpu1.iq.FU_type_0::SimdShaSigma2             0      0.00%     66.07% # Type of FU issued
system.cpu1.iq.FU_type_0::SimdShaSigma3             0      0.00%     66.07% # Type of FU issued
system.cpu1.iq.FU_type_0::SimdPredAlu               0      0.00%     66.07% # Type of FU issued
system.cpu1.iq.FU_type_0::MemRead            36949676     26.99%     93.06% # Type of FU issued
system.cpu1.iq.FU_type_0::MemWrite            9505733      6.94%    100.00% # Type of FU issued
system.cpu1.iq.FU_type_0::FloatMemRead              0      0.00%    100.00% # Type of FU issued
system.cpu1.iq.FU_type_0::FloatMemWrite            12      0.00%    100.00% # Type of FU issued
system.cpu1.iq.FU_type_0::IprAccess                 0      0.00%    100.00% # Type of FU issued
system.cpu1.iq.FU_type_0::InstPrefetch              0      0.00%    100.00% # Type of FU issued
system.cpu1.iq.FU_type_0::total             136900378                       # Type of FU issued
system.cpu1.iq.fp_alu_accesses                     15                       # Number of floating point alu accesses
system.cpu1.iq.fp_inst_queue_reads                 27                       # Number of floating instruction queue reads
system.cpu1.iq.fp_inst_queue_wakeup_accesses           12                       # Number of floating instruction queue wakeup accesses
system.cpu1.iq.fp_inst_queue_writes                12                       # Number of floating instruction queue writes
system.cpu1.iq.fu_busy_cnt                    2976556                       # FU busy when requested
system.cpu1.iq.fu_busy_rate                  0.021742                       # FU busy rate (busy events/executed inst)
system.cpu1.iq.fu_full::No_OpClass                  0      0.00%      0.00% # attempts to use FU when none available
system.cpu1.iq.fu_full::IntAlu                 664603     22.33%     22.33% # attempts to use FU when none available
system.cpu1.iq.fu_full::IntMult                     0      0.00%     22.33% # attempts to use FU when none available
system.cpu1.iq.fu_full::IntDiv                      0      0.00%     22.33% # attempts to use FU when none available
system.cpu1.iq.fu_full::FloatAdd                    0      0.00%     22.33% # attempts to use FU when none available
system.cpu1.iq.fu_full::FloatCmp                    0      0.00%     22.33% # attempts to use FU when none available
system.cpu1.iq.fu_full::FloatCvt                    0      0.00%     22.33% # attempts to use FU when none available
system.cpu1.iq.fu_full::FloatMult                   0      0.00%     22.33% # attempts to use FU when none available
system.cpu1.iq.fu_full::FloatMultAcc                0      0.00%     22.33% # attempts to use FU when none available
system.cpu1.iq.fu_full::FloatDiv                    0      0.00%     22.33% # attempts to use FU when none available
system.cpu1.iq.fu_full::FloatMisc                   0      0.00%     22.33% # attempts to use FU when none available
system.cpu1.iq.fu_full::FloatSqrt                   0      0.00%     22.33% # attempts to use FU when none available
system.cpu1.iq.fu_full::SimdAdd                     0      0.00%     22.33% # attempts to use FU when none available
system.cpu1.iq.fu_full::SimdAddAcc                  0      0.00%     22.33% # attempts to use FU when none available
system.cpu1.iq.fu_full::SimdAlu                     0      0.00%     22.33% # attempts to use FU when none available
system.cpu1.iq.fu_full::SimdCmp                     0      0.00%     22.33% # attempts to use FU when none available
system.cpu1.iq.fu_full::SimdCvt                     0      0.00%     22.33% # attempts to use FU when none available
system.cpu1.iq.fu_full::SimdMisc                    0      0.00%     22.33% # attempts to use FU when none available
system.cpu1.iq.fu_full::SimdMult                    0      0.00%     22.33% # attempts to use FU when none available
system.cpu1.iq.fu_full::SimdMultAcc                 0      0.00%     22.33% # attempts to use FU when none available
system.cpu1.iq.fu_full::SimdShift                   0      0.00%     22.33% # attempts to use FU when none available
system.cpu1.iq.fu_full::SimdShiftAcc                0      0.00%     22.33% # attempts to use FU when none available
system.cpu1.iq.fu_full::SimdDiv                     0      0.00%     22.33% # attempts to use FU when none available
system.cpu1.iq.fu_full::SimdSqrt                    0      0.00%     22.33% # attempts to use FU when none available
system.cpu1.iq.fu_full::SimdFloatAdd                0      0.00%     22.33% # attempts to use FU when none available
system.cpu1.iq.fu_full::SimdFloatAlu                0      0.00%     22.33% # attempts to use FU when none available
system.cpu1.iq.fu_full::SimdFloatCmp                0      0.00%     22.33% # attempts to use FU when none available
system.cpu1.iq.fu_full::SimdFloatCvt                0      0.00%     22.33% # attempts to use FU when none available
system.cpu1.iq.fu_full::SimdFloatDiv                0      0.00%     22.33% # attempts to use FU when none available
system.cpu1.iq.fu_full::SimdFloatMisc               0      0.00%     22.33% # attempts to use FU when none available
system.cpu1.iq.fu_full::SimdFloatMult               0      0.00%     22.33% # attempts to use FU when none available
system.cpu1.iq.fu_full::SimdFloatMultAcc            0      0.00%     22.33% # attempts to use FU when none available
system.cpu1.iq.fu_full::SimdFloatSqrt               0      0.00%     22.33% # attempts to use FU when none available
system.cpu1.iq.fu_full::SimdReduceAdd               0      0.00%     22.33% # attempts to use FU when none available
system.cpu1.iq.fu_full::SimdReduceAlu               0      0.00%     22.33% # attempts to use FU when none available
system.cpu1.iq.fu_full::SimdReduceCmp               0      0.00%     22.33% # attempts to use FU when none available
system.cpu1.iq.fu_full::SimdFloatReduceAdd            0      0.00%     22.33% # attempts to use FU when none available
system.cpu1.iq.fu_full::SimdFloatReduceCmp            0      0.00%     22.33% # attempts to use FU when none available
system.cpu1.iq.fu_full::SimdAes                     0      0.00%     22.33% # attempts to use FU when none available
system.cpu1.iq.fu_full::SimdAesMix                  0      0.00%     22.33% # attempts to use FU when none available
system.cpu1.iq.fu_full::SimdSha1Hash                0      0.00%     22.33% # attempts to use FU when none available
system.cpu1.iq.fu_full::SimdSha1Hash2               0      0.00%     22.33% # attempts to use FU when none available
system.cpu1.iq.fu_full::SimdSha256Hash              0      0.00%     22.33% # attempts to use FU when none available
system.cpu1.iq.fu_full::SimdSha256Hash2             0      0.00%     22.33% # attempts to use FU when none available
system.cpu1.iq.fu_full::SimdShaSigma2               0      0.00%     22.33% # attempts to use FU when none available
system.cpu1.iq.fu_full::SimdShaSigma3               0      0.00%     22.33% # attempts to use FU when none available
system.cpu1.iq.fu_full::SimdPredAlu                 0      0.00%     22.33% # attempts to use FU when none available
system.cpu1.iq.fu_full::MemRead               1862823     62.58%     84.91% # attempts to use FU when none available
system.cpu1.iq.fu_full::MemWrite               449127     15.09%    100.00% # attempts to use FU when none available
[...]
system.cpu1.dcache.ReadReq_mshr_hits::total    141632721                       # number of ReadReq MSHR hits
system.cpu1.dcache.ReadReq_mshr_misses::.cpu1.data     94868112                       # number of ReadReq MSHR misses
system.cpu1.dcache.ReadReq_mshr_misses::total     94868112                       # number of ReadReq MSHR misses
system.cpu1.dcache.ReadReq_mshr_miss_latency::.cpu1.data 10134777514000                       # number of ReadReq MSHR miss cycles
system.cpu1.dcache.ReadReq_mshr_miss_latency::total 10134777514000                       # number of ReadReq MSHR miss cycles
system.cpu1.dcache.ReadReq_mshr_miss_rate::.cpu1.data     0.163140                       # mshr miss rate for ReadReq accesses
system.cpu1.dcache.ReadReq_mshr_miss_rate::total     0.163140                       # mshr miss rate for ReadReq accesses
system.cpu1.dcache.ReadReq_avg_mshr_miss_latency::.cpu1.data 106830.180346                       # average ReadReq mshr miss latency
system.cpu1.dcache.ReadReq_avg_mshr_miss_latency::total 106830.180346                       # average ReadReq mshr miss latency
system.cpu1.dcache.WriteReq_hits::.cpu1.data     50972762                       # number of WriteReq hits
system.cpu1.dcache.WriteReq_hits::total      50972762                       # number of WriteReq hits
system.cpu1.dcache.WriteReq_misses::.cpu1.data     28475970                       # number of WriteReq misses
system.cpu1.dcache.WriteReq_misses::total     28475970                       # number of WriteReq misses
system.cpu1.dcache.WriteReq_miss_latency::.cpu1.data 2361301042284                       # number of WriteReq miss cycles
system.cpu1.dcache.WriteReq_miss_latency::total 2361301042284                       # number of WriteReq miss cycles
system.cpu1.dcache.WriteReq_accesses::.cpu1.data     79448732                       # number of WriteReq accesses(hits+misses)
system.cpu1.dcache.WriteReq_accesses::total     79448732                       # number of WriteReq accesses(hits+misses)
system.cpu1.dcache.WriteReq_miss_rate::.cpu1.data     0.358419                       # miss rate for WriteReq accesses
system.cpu1.dcache.WriteReq_miss_rate::total     0.358419                       # miss rate for WriteReq accesses
system.cpu1.dcache.WriteReq_avg_miss_latency::.cpu1.data 82922.584982                       # average WriteReq miss latency
system.cpu1.dcache.WriteReq_avg_miss_latency::total 82922.584982                       # average WriteReq miss latency
system.cpu1.dcache.WriteReq_mshr_hits::.cpu1.data     24330792                       # number of WriteReq MSHR hits
system.cpu1.dcache.WriteReq_mshr_hits::total     24330792                       # number of WriteReq MSHR hits
system.cpu1.dcache.WriteReq_mshr_misses::.cpu1.data      4145178                       # number of WriteReq MSHR misses
system.cpu1.dcache.WriteReq_mshr_misses::total      4145178                       # number of WriteReq MSHR misses
system.cpu1.dcache.WriteReq_mshr_miss_latency::.cpu1.data 333200665856                       # number of WriteReq MSHR miss cycles
system.cpu1.dcache.WriteReq_mshr_miss_latency::total 333200665856                       # number of WriteReq MSHR miss cycles
system.cpu1.dcache.WriteReq_mshr_miss_rate::.cpu1.data     0.052174                       # mshr miss rate for WriteReq accesses
system.cpu1.dcache.WriteReq_mshr_miss_rate::total     0.052174                       # mshr miss rate for WriteReq accesses
system.cpu1.dcache.WriteReq_avg_mshr_miss_latency::.cpu1.data 80382.715979                       # average WriteReq mshr miss latency
system.cpu1.dcache.WriteReq_avg_mshr_miss_latency::total 80382.715979                       # average WriteReq mshr miss latency
system.cpu1.dcache.LoadLockedReq_hits::.cpu1.data         3839                       # number of LoadLockedReq hits
system.cpu1.dcache.LoadLockedReq_hits::total         3839                       # number of LoadLockedReq hits
system.cpu1.dcache.LoadLockedReq_misses::.cpu1.data          844                       # number of LoadLockedReq misses
system.cpu1.dcache.LoadLockedReq_misses::total          844                       # number of LoadLockedReq misses
system.cpu1.dcache.LoadLockedReq_miss_latency::.cpu1.data     32756500                       # number of LoadLockedReq miss cycles
system.cpu1.dcache.LoadLockedReq_miss_latency::total     32756500                       # number of LoadLockedReq miss cycles
system.cpu1.dcache.LoadLockedReq_accesses::.cpu1.data         4683                       # number of LoadLockedReq accesses(hits+misses)
system.cpu1.dcache.LoadLockedReq_accesses::total         4683                       # number of LoadLockedReq accesses(hits+misses)
system.cpu1.dcache.LoadLockedReq_miss_rate::.cpu1.data     0.180226                       # miss rate for LoadLockedReq accesses
system.cpu1.dcache.LoadLockedReq_miss_rate::total     0.180226                       # miss rate for LoadLockedReq accesses
system.cpu1.dcache.LoadLockedReq_avg_miss_latency::.cpu1.data 38811.018957                       # average LoadLockedReq miss latency
system.cpu1.dcache.LoadLockedReq_avg_miss_latency::total 38811.018957                       # average LoadLockedReq miss latency
system.cpu1.dcache.LoadLockedReq_mshr_hits::.cpu1.data          720                       # number of LoadLockedReq MSHR hits
system.cpu1.dcache.LoadLockedReq_mshr_hits::total          720                       # number of LoadLockedReq MSHR hits
system.cpu1.dcache.LoadLockedReq_mshr_misses::.cpu1.data          124                       # number of LoadLockedReq MSHR misses
system.cpu1.dcache.LoadLockedReq_mshr_misses::total          124                       # number of LoadLockedReq MSHR misses
system.cpu1.dcache.LoadLockedReq_mshr_miss_latency::.cpu1.data      1436500                       # number of LoadLockedReq MSHR miss cycles
system.cpu1.dcache.LoadLockedReq_mshr_miss_latency::total      1436500                       # number of LoadLockedReq MSHR miss cycles
system.cpu1.dcache.LoadLockedReq_mshr_miss_rate::.cpu1.data     0.026479                       # mshr miss rate for LoadLockedReq accesses
system.cpu1.dcache.LoadLockedReq_mshr_miss_rate::total     0.026479                       # mshr miss rate for LoadLockedReq accesses
system.cpu1.dcache.LoadLockedReq_avg_mshr_miss_latency::.cpu1.data 11584.677419                       # average LoadLockedReq mshr miss latency
system.cpu1.dcache.LoadLockedReq_avg_mshr_miss_latency::total 11584.677419                       # average LoadLockedReq mshr miss latency
system.cpu1.dcache.StoreCondReq_hits::.cpu1.data         2286                       # number of StoreCondReq hits
system.cpu1.dcache.StoreCondReq_hits::total         2286                       # number of StoreCondReq hits
system.cpu1.dcache.StoreCondReq_misses::.cpu1.data         1767                       # number of StoreCondReq misses
system.cpu1.dcache.StoreCondReq_misses::total         1767                       # number of StoreCondReq misses
system.cpu1.dcache.StoreCondReq_miss_latency::.cpu1.data     10010000                       # number of StoreCondReq miss cycles
system.cpu1.dcache.StoreCondReq_miss_latency::total     10010000                       # number of StoreCondReq miss cycles
system.cpu1.dcache.StoreCondReq_accesses::.cpu1.data         4053                       # number of StoreCondReq accesses(hits+misses)
system.cpu1.dcache.StoreCondReq_accesses::total         4053                       # number of StoreCondReq accesses(hits+misses)
system.cpu1.dcache.StoreCondReq_miss_rate::.cpu1.data     0.435973                       # miss rate for StoreCondReq accesses
system.cpu1.dcache.StoreCondReq_miss_rate::total     0.435973                       # miss rate for StoreCondReq accesses
system.cpu1.dcache.StoreCondReq_avg_miss_latency::.cpu1.data  5664.968874                       # average StoreCondReq miss latency
system.cpu1.dcache.StoreCondReq_avg_miss_latency::total  5664.968874                       # average StoreCondReq miss latency
system.cpu1.dcache.StoreCondReq_mshr_misses::.cpu1.data         1766                       # number of StoreCondReq MSHR misses
system.cpu1.dcache.StoreCondReq_mshr_misses::total         1766                       # number of StoreCondReq MSHR misses
system.cpu1.dcache.StoreCondReq_mshr_miss_latency::.cpu1.data      8244000                       # number of StoreCondReq MSHR miss cycles
system.cpu1.dcache.StoreCondReq_mshr_miss_latency::total      8244000                       # number of StoreCondReq MSHR miss cycles
system.cpu1.dcache.StoreCondReq_mshr_miss_rate::.cpu1.data     0.435727                       # mshr miss rate for StoreCondReq accesses
system.cpu1.dcache.StoreCondReq_mshr_miss_rate::total     0.435727                       # mshr miss rate for StoreCondReq accesses
system.cpu1.dcache.StoreCondReq_avg_mshr_miss_latency::.cpu1.data  4668.176670                       # average StoreCondReq mshr miss latency
system.cpu1.dcache.StoreCondReq_avg_mshr_miss_latency::total  4668.176670                       # average StoreCondReq mshr miss latency
system.cpu1.dcache.SwapReq_hits::.cpu1.data         2037                       # number of SwapReq hits
system.cpu1.dcache.SwapReq_hits::total           2037                       # number of SwapReq hits
system.cpu1.dcache.SwapReq_misses::.cpu1.data       584592                       # number of SwapReq misses
system.cpu1.dcache.SwapReq_misses::total       584592                       # number of SwapReq misses
system.cpu1.dcache.SwapReq_miss_latency::.cpu1.data   9775622500                       # number of SwapReq miss cycles
system.cpu1.dcache.SwapReq_miss_latency::total   9775622500                       # number of SwapReq miss cycles
system.cpu1.dcache.SwapReq_accesses::.cpu1.data       586629                       # number of SwapReq accesses(hits+misses)
system.cpu1.dcache.SwapReq_accesses::total       586629                       # number of SwapReq accesses(hits+misses)
system.cpu1.dcache.SwapReq_miss_rate::.cpu1.data     0.996528                       # miss rate for SwapReq accesses
system.cpu1.dcache.SwapReq_miss_rate::total     0.996528                       # miss rate for SwapReq accesses
system.cpu1.dcache.SwapReq_avg_miss_latency::.cpu1.data 16722.128425                       # average SwapReq miss latency
system.cpu1.dcache.SwapReq_avg_miss_latency::total 16722.128425                       # average SwapReq miss latency
system.cpu1.dcache.SwapReq_mshr_misses::.cpu1.data       584592                       # number of SwapReq MSHR misses
system.cpu1.dcache.SwapReq_mshr_misses::total       584592                       # number of SwapReq MSHR misses
system.cpu1.dcache.SwapReq_mshr_miss_latency::.cpu1.data   9191030500                       # number of SwapReq MSHR miss cycles
system.cpu1.dcache.SwapReq_mshr_miss_latency::total   9191030500                       # number of SwapReq MSHR miss cycles
system.cpu1.dcache.SwapReq_mshr_miss_rate::.cpu1.data     0.996528                       # mshr miss rate for SwapReq accesses
system.cpu1.dcache.SwapReq_mshr_miss_rate::total     0.996528                       # mshr miss rate for SwapReq accesses
system.cpu1.dcache.SwapReq_avg_mshr_miss_latency::.cpu1.data 15722.128425                       # average SwapReq mshr miss latency
system.cpu1.dcache.SwapReq_avg_mshr_miss_latency::total 15722.128425                       # average SwapReq mshr miss latency
system.cpu1.dcache.tags.pwrStateResidencyTicks::UNDEFINED 3299983429500                       # Cumulative time (in ticks) in various power states
system.cpu1.dcache.tags.tagsinuse           31.939688                       # Cycle average of tags in use
system.cpu1.dcache.tags.total_refs          495844212                       # Total number of references to valid blocks.
system.cpu1.dcache.tags.sampled_refs         99241544                       # Sample count of references to valid blocks.
system.cpu1.dcache.tags.avg_refs             4.996337                       # Average number of references to valid blocks.
system.cpu1.dcache.tags.warmup_cycle                0                       # Cycle when the warmup percentage was hit.
system.cpu1.dcache.tags.occ_blocks::.cpu1.data    31.939688                       # Average occupied blocks per requestor
system.cpu1.dcache.tags.occ_percent::.cpu1.data     0.998115                       # Average percentage of cache occupancy
system.cpu1.dcache.tags.occ_percent::total     0.998115                       # Average percentage of cache occupancy
system.cpu1.dcache.tags.occ_task_id_blocks::1024           27                       # Occupied blocks per task id
system.cpu1.dcache.tags.age_task_id_blocks_1024::1           27                       # Occupied blocks per task id
system.cpu1.dcache.tags.occ_task_id_percent::1024     0.843750                       # Percentage of cache occupancy per task id
system.cpu1.dcache.tags.tag_accesses       1422356459                       # Number of tag accesses
system.cpu1.dcache.tags.data_accesses      1422356459                       # Number of data accesses
system.cpu_clk_domain.clock                       500                       # Clock period in ticks
system.tol2bus.pwrStateResidencyTicks::UNDEFINED 3299983429500                       # Cumulative time (in ticks) in various power states
system.tol2bus.trans_dist::ReadResp         190135309                       # Transaction distribution
system.tol2bus.trans_dist::WritebackDirty     25538573                       # Transaction distribution
system.tol2bus.trans_dist::WritebackClean    183176322                       # Transaction distribution
system.tol2bus.trans_dist::CleanEvict       527555990                       # Transaction distribution
system.tol2bus.trans_dist::HardPFReq        301395835                       # Transaction distribution
system.tol2bus.trans_dist::HardPFResp             492                       # Transaction distribution
system.tol2bus.trans_dist::UpgradeReq          842477                       # Transaction distribution
system.tol2bus.trans_dist::SCUpgradeReq          3025                       # Transaction distribution
system.tol2bus.trans_dist::UpgradeResp         845502                       # Transaction distribution
system.tol2bus.trans_dist::SCUpgradeFailReq            1                       # Transaction distribution
system.tol2bus.trans_dist::UpgradeFailResp            1                       # Transaction distribution
system.tol2bus.trans_dist::ReadExReq          8778803                       # Transaction distribution
system.tol2bus.trans_dist::ReadExResp         8778803                       # Transaction distribution
system.tol2bus.trans_dist::ReadCleanReq        110265                       # Transaction distribution
system.tol2bus.trans_dist::ReadSharedReq    190025044                       # Transaction distribution
system.tol2bus.trans_dist::InvalidateReq            6                       # Transaction distribution
system.tol2bus.trans_dist::InvalidateResp            6                       # Transaction distribution
system.tol2bus.pkt_count_system.cpu0.icache.mem_side::system.l2.cpu_side       270945                       # Packet count per connected master and slave (bytes)
system.tol2bus.pkt_count_system.cpu0.dcache.mem_side::system.l2.cpu_side    297950819                       # Packet count per connected master and slave (bytes)
system.tol2bus.pkt_count_system.cpu1.icache.mem_side::system.l2.cpu_side        59850                       # Packet count per connected master and slave (bytes)
system.tol2bus.pkt_count_system.cpu1.dcache.mem_side::system.l2.cpu_side    296982806                       # Packet count per connected master and slave (bytes)
system.tol2bus.pkt_count::total             595264420                       # Packet count per connected master and slave (bytes)
system.tol2bus.pkt_size_system.cpu0.icache.mem_side::system.l2.cpu_side     11560320                       # Cumulative packet size per connected master and slave (bytes)
system.tol2bus.pkt_size_system.cpu0.dcache.mem_side::system.l2.cpu_side  12660866496                       # Cumulative packet size per connected master and slave (bytes)
system.tol2bus.pkt_size_system.cpu1.icache.mem_side::system.l2.cpu_side      2553600                       # Cumulative packet size per connected master and slave (bytes)
system.tol2bus.pkt_size_system.cpu1.dcache.mem_side::system.l2.cpu_side  12619663616                       # Cumulative packet size per connected master and slave (bytes)
system.tol2bus.pkt_size::total            25294644032                       # Cumulative packet size per connected master and slave (bytes)
system.tol2bus.snoops                       841922526                       # Total snoops (count)
system.tol2bus.snoopTraffic                 793675456                       # Total snoop traffic (bytes)
system.tol2bus.snoop_fanout::samples       1040566499                       # Request fanout histogram
system.tol2bus.snoop_fanout::mean            0.177982                       # Request fanout histogram
system.tol2bus.snoop_fanout::stdev           0.387601                       # Request fanout histogram
system.tol2bus.snoop_fanout::underflows             0      0.00%      0.00% # Request fanout histogram
system.tol2bus.snoop_fanout::0              857409274     82.40%     82.40% # Request fanout histogram
system.tol2bus.snoop_fanout::1              181112295     17.41%     99.80% # Request fanout histogram
system.tol2bus.snoop_fanout::2                2044930      0.20%    100.00% # Request fanout histogram
system.tol2bus.snoop_fanout::3                      0      0.00%    100.00% # Request fanout histogram
system.tol2bus.snoop_fanout::4                      0      0.00%    100.00% # Request fanout histogram
system.tol2bus.snoop_fanout::5                      0      0.00%    100.00% # Request fanout histogram
system.tol2bus.snoop_fanout::6                      0      0.00%    100.00% # Request fanout histogram
system.tol2bus.snoop_fanout::7                      0      0.00%    100.00% # Request fanout histogram
system.tol2bus.snoop_fanout::8                      0      0.00%    100.00% # Request fanout histogram
system.tol2bus.snoop_fanout::overflows              0      0.00%    100.00% # Request fanout histogram
system.tol2bus.snoop_fanout::min_value              0                       # Request fanout histogram
system.tol2bus.snoop_fanout::max_value              2                       # Request fanout histogram
system.tol2bus.snoop_fanout::total         1040566499                       # Request fanout histogram
system.tol2bus.reqLayer0.occupancy       397388051822                       # Layer occupancy (ticks)
system.tol2bus.reqLayer0.utilization             12.0                       # Layer utilization (%)
system.tol2bus.respLayer1.occupancy      149730914700                       # Layer occupancy (ticks)
system.tol2bus.respLayer1.utilization             4.5                       # Layer utilization (%)
system.tol2bus.respLayer0.occupancy         135576292                       # Layer occupancy (ticks)
system.tol2bus.respLayer0.utilization             0.0                       # Layer utilization (%)
system.tol2bus.respLayer3.occupancy      149232878804                       # Layer occupancy (ticks)
system.tol2bus.respLayer3.utilization             4.5                       # Layer utilization (%)
system.tol2bus.respLayer2.occupancy          30070708                       # Layer occupancy (ticks)
system.tol2bus.respLayer2.utilization             0.0                       # Layer utilization (%)
system.tol2bus.snoopLayer0.occupancy           738264                       # Layer occupancy (ticks)
system.tol2bus.snoopLayer0.utilization            0.0                       # Layer utilization (%)

---------- End Simulation Statistics   ----------
