Redirecting stdout to /vol1/msoyturk/gem5/results/sssp/slashdot.el/prefetch_DCPTPrefetcher_BRRIPRP/output.txt
Redirecting stderr to /vol1/msoyturk/gem5/results/sssp/slashdot.el/prefetch_DCPTPrefetcher_BRRIPRP/error.txt
gem5 Simulator System.  http://gem5.org
gem5 is copyrighted software; use the --copyright option for details.

gem5 compiled Apr 26 2020 13:32:47
gem5 started May  2 2020 04:08:11
gem5 executing on draco, pid 32563
command line: /vol1/msoyturk/gem5/build/RISCV/gem5.fast -re --outdir=/vol1/msoyturk/gem5/results/sssp/slashdot.el/prefetch_DCPTPrefetcher_BRRIPRP --stdout-file=output.txt --stderr-file=error.txt /vol1/msoyturk/gem5/configs/example/my_se.py -c /vol1/msoyturk/gem5/gapbs/sssp -o '-f /vol1/msoyturk/gem5/gapbs/test/graphs/slashdot.el' --caches --l1d_size=2kB --l1i_size=2kB --cpu-type=DerivO3CPU -n 4 --mem-size=512MB --l2cache --l2_size=4kB --l2-hwp-type=DCPTPrefetcher --l2-replacement-policy=BRRIPRP --l1i_mshrs=4 --l1d_mshrs=4 --l2_mshrs=20 --l1i_write_buffers=8 --l1d_write_buffers=8 --l2_write_buffers=8

info: Standard input is not a terminal, disabling listeners.
Warning: l2-hwp-type is set ( DCPTPrefetcher ), but the current l2 has a default Hardware Prefetcher of type <class 'm5.params.NullSimObject'> , using the specified by the flag option.
Global frequency set at 1000000000000 ticks per second
**** REAL SIMULATION ****
Read Time:           0.93593
Build Time:          0.19915
Graph has 77360 nodes and 828161 directed edges for degree: 10
    0          1     0.03379
   12          1     0.11101
   15          1     0.06797
   16          1     0.01519
   20          2     1.29336
   21         13     0.35120
   22          9     0.16802
   23         15     0.28319
   24         15     0.83855
   25         40     0.58824
   26         42     1.07481
   27         60     1.00463
   28         79     0.89659
   29         97     1.03676
   30        131     1.24812
   31        174     1.39393
   32        217     1.01687
   33        306     1.26766
   34        387     1.65042
   35        415     1.48473
   36        553     1.38416
   37        634     1.57122
   38        672     1.31268
   39        773     1.33964
   40        788     1.03679
   41        830     1.08426
   42        893     0.90716
   43        911     0.82076
   44        909     0.67135
   45        883     0.65016
   46        948     0.63332
   47        919     0.52774
   48        903     0.52873
   49        947     0.47661
   50        959     0.43449
   51        956     0.45161
   52        911     0.41881
   53        956     0.35959
   54        925     0.32247
   55        861     0.29329
   56        893     0.32387
   57        911     0.28751
   58        871     0.26358
   59        860     0.23550
   60        837     0.24213
   61        816     0.21215
   62        878     0.22636
   63        836     0.19391
   64        849     0.20362
   65        822     0.21690
   66        827     0.16877
   67        831     0.18021
   68        770     0.17343
   69        777     0.15446
   70        871     0.18551
   71        790     0.14909
   72        756     0.12154
   73        792     0.15445
   74        765     0.14390
   75        726     0.14011
   76        704     0.12365
   77        694     0.12067
   78        746     0.14591
   79        726     0.12352
   80        748     0.13714
   81        674     0.10517
   82        684     0.10201
   83        664     0.10197
   84        675     0.10279
   85        725     0.10388
   86        663     0.09177
   87        649     0.10954
   88        651     0.09573
   89        673     0.09651
   90        670     0.08897
   91        673     0.10343
   92        622     0.08892
   93        592     0.08605
   94        615     0.08329
   95        616     0.08961
   96        639     0.09989
   97        593     0.07676
   98        573     0.08641
   99        607     0.08090
  100        556     0.06349
  101        589     0.06967
  102        592     0.08920
  103        572     0.08349
  104        598     0.07329
  105        604     0.08590
  106        548     0.07417
  107        550     0.07786
  108        572     0.07914
  109        580     0.07945
  110        573     0.07229
  111        548     0.06716
  112        511     0.06920
  113        567     0.06947
  114        531     0.06412
  115        538     0.05788
  116        532     0.05781
  117        544     0.07063
  118        566     0.07016
  119        503     0.06498
  120        552     0.06401
  121        496     0.05696
  122        537     0.06182
  123        535     0.05653
  124        491     0.07691
  125        503     0.06227
  126        508     0.06239
  127        509     0.05260
  128        508     0.05080
  129        489     0.04785
  130        501     0.06489
  131        523     0.05828
  132        522     0.04991
  133        532     0.06146
  134        512     0.06964
  135        514     0.05612
  136        471     0.04473
  137        510     0.04786
  138        494     0.05561
  139        488     0.05890
  140        496     0.06990
  141        480     0.05017
  142        499     0.05260
  143        451     0.05164
  144        459     0.06138
  145        478     0.04685
  146        418     0.05009
  147        491     0.05140
  148        461     0.05214
  149        455     0.05258
  150        476     0.04981
  151        453     0.05880
  152        450     0.05831
  153        446     0.05097
  154        474     0.04370
  155        431     0.04710
  156        476     0.04528
  157        473     0.04555
  158        471     0.04809
  159        429     0.04931
  160        472     0.04795
  161        446     0.05989
  162        432     0.04209
  163        444     0.05442
  164        403     0.04431
  165        425     0.04364
  166        415     0.04682
  167        444     0.05552
  168        408     0.04216
  169        412     0.04867
  170        427     0.04297
  171        425     0.04365
  172        415     0.04021
  173        426     0.04608
  174        412     0.04268
  175        419     0.03914
  176        390     0.03633
  177        417     0.04286
  178        388     0.03986
  179        395     0.03597
  180        403     0.04048
  181        404     0.04662
  182        415     0.04012
  183        403     0.03765
  184        413     0.04258
  185        397     0.03732
  186        426     0.03722
  187        405     0.04449
  188        368     0.03605
  189        370     0.03490
  190        378     0.03766
  191        427     0.05434
  192        374     0.04755
  193        365     0.04393
  194        409     0.03330
  195        389     0.03823
  196        373     0.04102
  197        399     0.04749
  198        381     0.04348
  199        408     0.04065
  200        387     0.04017
  201        369     0.03197
  202        375     0.03609
  203        386     0.03612
  204        365     0.04150
  205        387     0.03748
  206        344     0.03389
  207        382     0.03951
  208        378     0.03302
  209        368     0.03947
  210        384     0.03918
  211        387     0.03719
  212        387     0.04456
  213        370     0.03688
  214        380     0.03958
  215        347     0.02862
  216        354     0.03590
  217        366     0.03526
  218        396     0.03564
  219        368     0.04102
  220        358     0.04324
  221        343     0.03004
  222        307     0.03353
  223        354     0.03783
  224        319     0.03558
  225        384     0.03624
  226        370     0.03149
  227        361     0.03150
  228        358     0.03471
  229        351     0.03321
  230        337     0.03537
  231        342     0.02790
  232        330     0.03202
  233        346     0.04350
  234        343     0.03163
  235        328     0.02911
  236        323     0.03213
  237        325     0.03122
  238        344     0.03180
  239        350     0.03044
  240        328     0.02726
  241        319     0.03580
  242        323     0.03248
  243        333     0.03324
  244        385     0.03545
  245        340     0.03367
  246        304     0.03446
  247        316     0.03401
  248        315     0.03324
  249        338     0.03626
  250        345     0.03608
  251        313     0.03255
  252        368     0.03817
  253        341     0.03675
  254        353     0.03510
  255        324     0.03219
  256        338     0.03930
  257        324     0.03399
  258        350     0.03629
  259        307     0.03086
  260        352     0.03404
  261        362     0.03322
  262        312     0.02682
  263        341     0.03493
  264        313     0.03860
  265        287     0.02908
  266        329     0.03682
  267        329     0.03510
  268        315     0.03547
  269        351     0.02969
  270        293     0.02918
  271        333     0.03816
  272        326     0.03214
  273        295     0.02284
  274        315     0.03111
  275        281     0.02786
  276        319     0.02971
  277        315     0.03097
  278        305     0.03839
  279        305     0.03085
  280        275     0.02502
  281        290     0.03049
  282        245     0.02616
  283        282     0.03916
  284        248     0.03086
  285        264     0.03409
  286        231     0.02817
  287        205     0.03018
  288        205     0.02533
  289        217     0.02864
  290        199     0.02277
  291        149     0.01921
  292        159     0.01909
  293        122     0.01805
  294        104     0.01330
  295        104     0.01757
  296        101     0.01648
  297        109     0.01819
  298         78     0.01654
  299         75     0.02206
  300         78     0.01475
  301         66     0.01655
  302         87     0.01628
  303         60     0.01672
  304         66     0.02596
  305         80     0.02108
  306         79     0.01789
  307         57     0.01825
  308         68     0.02137
  309         48     0.01293
  310         58     0.02468
  311         56     0.01804
  312         46     0.01474
  313         66     0.01827
  314         50     0.01865
  315         35     0.01507
  316         37     0.01560
  317         41     0.01576
  318         38     0.01470
  319         38     0.01735
  320         47     0.01529
  321         35     0.01066
  322         33     0.01283
  323         37     0.01158
  324         39     0.02223
  325         37     0.01424
  326         31     0.01535
  327         26     0.01274
  328         23     0.01117
  329         31     0.01079
  330         34     0.01566
  331         26     0.01076
  332         17     0.00800
  333         18     0.00853
  334         23     0.00944
  335         28     0.00935
  336         30     0.00997
  337         21     0.01045
  338         31     0.01309
  339         24     0.00890
  340         25     0.01410
  341         15     0.00863
  342         23     0.01669
  343         19     0.01116
  344         26     0.01450
  345         20     0.01153
  346         30     0.01028
  347         14     0.00776
  348         12     0.01028
  349         18     0.00898
  350         17     0.00867
  351         21     0.00875
  352         23     0.00944
  353         28     0.00979
  354         17     0.00876
  355         17     0.00852
  356         14     0.00798
  357         14     0.01315
  358         21     0.01520
  359         24     0.01108
  360         22     0.00895
  361         14     0.00858
  362         19     0.00880
  363         19     0.01215
  364         15     0.01119
  365         14     0.01130
  366         23     0.01428
  367         25     0.01271
  368         17     0.00816
  369         14     0.00805
  370         20     0.00867
  371         15     0.01158
  372         17     0.01087
  373         18     0.01300
  374         10     0.00795
  375         12     0.00775
  376         15     0.00844
  377         12     0.00759
  378         17     0.01420
  379         21     0.01577
  380         12     0.00765
  381         13     0.00811
  382         12     0.00952
  383          9     0.01046
  384          7     0.00743
  385         11     0.00767
  386         10     0.00780
  387          8     0.01345
  388         11     0.00829
  389          7     0.00979
  390          5     0.00636
  391         12     0.01339
  392         12     0.00728
  393          9     0.01387
  394         13     0.00754
  395         10     0.01436
  396         11     0.00974
  397         13     0.01099
  398         13     0.01461
  399         15     0.00950
  400          5     0.00672
  401         12     0.01066
  402         11     0.00936
  403         10     0.00766
  404          8     0.00727
  405          7     0.00868
  406         18     0.01895
  407         12     0.01026
  408         15     0.00834
  409          9     0.00781
  410          7     0.00858
  411         10     0.00761
  412          6     0.00732
  413          6     0.00679
  414         10     0.01252
  415          9     0.00749
  416          8     0.00720
  417          7     0.00970
  418          5     0.01088
  419         11     0.00858
  420          9     0.00730
  421         11     0.01334
  422          7     0.00688
  423         12     0.00984
  424         14     0.00771
  425          9     0.00717
  426          9     0.00684
  427          9     0.00951
  428         11     0.00948
  429          8     0.00828
  430          6     0.00646
  431          5     0.00667
  432         12     0.00838
  433          2     0.00604
  434          5     0.00726
  435          7     0.00734
  436          8     0.00751
  437          5     0.00976
  438          9     0.01210
  439          8     0.00706
  440          5     0.01184
  441          9     0.00792
  442          6     0.00654
  443          3     0.00638
  444         11     0.00743
  445          9     0.00735
  446          7     0.00981
  447          2     0.00630
  448          8     0.01135
  449          3     0.01182
  450          6     0.01085
  451          7     0.00703
  452         10     0.00763
  453          4     0.00638
  454          5     0.00956
  455         11     0.00766
  456          5     0.00642
  457          5     0.00998
  458          6     0.01047
  459          8     0.01502
  460          4     0.00637
  461          9     0.00717
  462          3     0.00895
  463          9     0.01174
  464          5     0.00724
  465          3     0.00658
  466          2     0.00615
  467          7     0.00956
  468          3     0.00946
  469          5     0.00662
  470          7     0.00650
  471          6     0.01045
  472          7     0.00735
  473          2     0.00614
  474          3     0.00589
  475          3     0.01015
  476          3     0.00616
  477          5     0.00648
  478          6     0.01440
  479          1     0.00603
  480          7     0.00686
  481          3     0.01115
  482          2     0.00607
  483          4     0.00644
  484          3     0.00606
  485          2     0.00622
  486          1     0.00568
  487          3     0.00583
  488          4     0.00645
  489          4     0.00659
  490          3     0.00641
  491          4     0.00651
  492          7     0.00753
  493          4     0.01261
  494          2     0.00635
  495          3     0.00622
  496          1     0.00606
  497          4     0.00628
  498          1     0.00587
  499          2     0.00619
  500          4     0.00656
  501          7     0.00664
  502          7     0.00765
  503          4     0.03116
  504          5     0.00696
  505          3     0.00626
  506          3     0.00627
  507          2     0.00593
  509          6     0.01109
  511          2     0.00604
  512          1     0.00607
  513          1     0.00562
  515          5     0.01211
  517          5     0.00641
  518          2     0.00578
  520          4     0.00610
  521          4     0.00891
  522          1     0.00564
  523          2     0.00600
  524          3     0.00596
  525          1     0.00556
  526          5     0.00913
  528          4     0.00616
  529          1     0.00554
  530          1     0.00567
  531          2     0.00529
  532          1     0.00567
  533          4     0.00597
  534          2     0.00612
  536          1     0.00570
  537          5     0.00653
  538          1     0.00551
  539          1     0.00568
  540          1     0.00589
  542          1     0.00587
  544          2     0.00548
  546          1     0.00556
  547          1     0.00543
  549          1     0.00551
  550          2     0.00561
  551          1     0.00571
  552          2     0.00967
  553          1     0.00476
  554          1     0.00498
  555          2     0.00555
  560          1     0.00515
  562          1     0.00517
  563          1     0.00556
  565          1     0.00551
  566          1     0.00569
  567          2     0.00557
  570          1     0.00548
  571          1     0.00549
  572          1     0.00566
  573          1     0.00545
  575          1     0.00514
  576          1     0.00548
  577          2     0.00551
  580          1     0.00525
  582          2     0.00511
  583          3     0.00792
  584          1     0.00527
  586          2     0.00553
  587          1     0.00509
  590          2     0.00540
  592          1     0.00535
  593          1     0.00537
  594          1     0.00546
  597          1     0.00551
  598          1     0.00556
  600          1     0.00563
  601          2     0.00979
  603          2     0.00574
  605          1     0.00556
  607          1     0.00546
  608          1     0.00587
  611          1     0.00570
  613          1     0.00553
  615          2     0.00892
  618          2     0.00609
  622          1     0.00607
  633          1     0.00574
  635          1     0.00593
  639          1     0.00559
  640          1     0.00561
  643          1     0.00533
  645          1     0.00525
  646          1     0.00553
  648          2     0.00606
  654          1     0.00588
  657          1     0.01103
  662          1     0.00585
  663          1     0.00548
  664          1     0.00546
  674          1     0.00539
  679          1     0.00534
  682          2     0.00963
  687          1     0.00618
  693          1     0.00558
  699          1     0.00561
  703          1     0.00568
  711          2     0.00575
  714          1     0.00566
  725          1     0.00600
  746          1     0.00562
  750          1     0.00653
  819          1     0.00631
  842          1     0.00602
  885          1     0.00550
took 593 iterations
Trial Time:          0.06057
    0          1     0.03962
   21          1     0.03238
   23          1     0.01640
   40          1     0.12732
   41          1     0.00898
   42          2     0.09649
   43          1     0.17984
   44          3     0.18316
   45          4     0.08043
   46          3     0.10407
   47          5     0.48539
   48          8     0.29635
   49         12     0.21903
   50          9     0.19990
   51         13     0.44506
   52         23     0.54017
   53         36     1.04373
   54         49     1.22251
   55         49     0.86509
   56         77     0.84713
   57         98     1.00658
   58        171     1.81722
   59        195     1.23287
   60        255     1.35696
   61        337     1.75847
   62        423     1.49397
   63        488     1.40138
   64        612     1.36689
   65        668     1.45723
   66        727     1.24513
   67        777     1.09779
   68        873     1.00340
   69        868     0.89925
   70        814     0.79732
   71        911     0.87450
   72        913     0.63975
   73        922     0.61942
   74        930     0.56361
   75        941     0.53791
   76        874     0.51167
   77        941     0.44798
   78        944     0.45688
   79        981     0.42357
   80        926     0.33279
   81        906     0.31756
   82        906     0.34737
   83        874     0.28274
   84        948     0.32225
   85        949     0.31459
   86        864     0.26109
   87        828     0.20098
   88        817     0.23053
   89        839     0.20289
   90        840     0.18403
   91        827     0.20379
   92        845     0.19678
   93        801     0.18762
   94        789     0.17891
   95        761     0.15244
   96        781     0.17472
   97        825     0.19166
   98        829     0.15578
   99        826     0.15917
  100        786     0.13418
  101        777     0.14924
  102        749     0.14052
  103        758     0.14224
  104        753     0.11796
  105        715     0.12825
  106        679     0.11799
  107        756     0.12518
  108        682     0.11084
  109        719     0.11242
  110        695     0.12161
  111        669     0.09655
  112        711     0.13150
  113        679     0.09745
  114        661     0.11360
  115        663     0.09364
  116        614     0.09524
  117        662     0.08722
  118        678     0.08754
  119        622     0.09012
  120        631     0.09091
  121        611     0.08055
  122        619     0.08587
  123        627     0.08985
  124        644     0.08918
  125        600     0.09266
  126        581     0.07773
  127        615     0.07289
  128        593     0.07119
  129        599     0.07623
  130        563     0.07941
  131        560     0.06982
  132        571     0.06611
  133        578     0.07305
  134        605     0.07008
  135        570     0.06407
  136        523     0.06777
  137        545     0.06514
  138        533     0.07009
  139        525     0.06802
  140        541     0.06169
  141        563     0.06298
  142        589     0.06572
  143        563     0.06718
  144        546     0.07394
  145        550     0.06109
  146        516     0.06121
  147        520     0.06421
  148        518     0.05714
  149        524     0.06257
  150        524     0.05844
  151        514     0.05800
  152        550     0.08338
  153        515     0.05755
  154        499     0.06743
  155        478     0.04909
  156        539     0.06953
  157        509     0.05895
  158        504     0.04935
  159        527     0.08000
  160        447     0.05452
  161        503     0.05599
  162        540     0.05981
  163        481     0.05750
  164        513     0.05515
  165        528     0.05783
  166        465     0.05312
  167        501     0.05547
  168        478     0.05177
  169        432     0.06049
  170        470     0.04937
  171        490     0.04749
  172        486     0.05688
  173        537     0.05151
  174        472     0.05163
  175        465     0.05012
  176        494     0.05756
  177        478     0.05103
  178        460     0.03972
  179        479     0.05844
  180        409     0.06243
  181        493     0.05191
  182        460     0.06277
  183        465     0.05140
  184        447     0.04450
  185        440     0.05708
  186        445     0.05114
  187        433     0.04702
  188        436     0.05579
  189        427     0.04430
  190        458     0.05314
  191        476     0.04761
  192        427     0.04584
  193        424     0.04178
  194        440     0.05841
  195        373     0.03741
  196        438     0.04114
  197        431     0.03738
  198        379     0.03989
  199        454     0.04837
  200        390     0.03994
  201        410     0.03918
  202        380     0.03880
  203        429     0.04918
  204        406     0.05103
  205        406     0.03596
  206        411     0.04195
  207        406     0.04242
  208        428     0.04519
  209        449     0.04806
  210        416     0.03857
  211        390     0.04096
  212        362     0.03872
  213        395     0.04081
  214        417     0.04427
  215        405     0.03687
  216        417     0.04397
  217        377     0.04375
  218        387     0.04162
  219        380     0.03828
  220        395     0.04270
  221        407     0.04314
  222        403     0.03347
  223        395     0.03628
  224        387     0.04081
  225        393     0.03888
  226        383     0.04335
  227        363     0.03954
  228        420     0.04609
  229        376     0.03486
  230        409     0.03982
  231        358     0.04352
  232        356     0.03581
  233        332     0.02903
  234        387     0.03569
  235        337     0.04799
  236        357     0.03517
  237        387     0.05607
  238        411     0.03860
  239        375     0.03717
  240        349     0.03289
  241        377     0.03485
  242        372     0.03975
  243        357     0.03642
  244        360     0.03614
  245        360     0.03837
  246        346     0.03082
  247        345     0.03213
  248        324     0.03281
  249        326     0.03936
  250        364     0.03743
  251        366     0.02975
  252        362     0.04666
  253        327     0.03435
  254        397     0.03889
  255        371     0.03939
  256        337     0.03437
  257        357     0.03146
  258        336     0.03368
  259        352     0.03093
  260        345     0.03039
  261        347     0.03103
  262        318     0.03434
  263        355     0.03600
  264        310     0.03349
  265        333     0.03278
  266        351     0.03539
  267        298     0.03013
  268        333     0.03172
  269        343     0.02968
  270        337     0.02596
  271        328     0.03292
  272        343     0.03533
  273        355     0.03728
  274        332     0.02862
  275        346     0.03194
  276        313     0.02959
  277        324     0.03065
  278        336     0.03540
  279        325     0.03682
  280        328     0.03338
  281        329     0.03081
  282        352     0.03823
  283        324     0.04124
  284        311     0.03325
  285        348     0.03978
  286        340     0.03288
  287        330     0.03869
  288        314     0.03530
  289        308     0.03716
  290        331     0.03163
  291        325     0.03355
  292        344     0.03510
  293        342     0.02762
  294        331     0.03601
  295        323     0.02718
  296        343     0.03077
  297        292     0.02911
  298        304     0.02587
  299        294     0.03247
  300        317     0.03043
  301        320     0.03435
  302        312     0.03757
  303        340     0.02964
  304        294     0.03103
  305        313     0.03470
  306        286     0.03420
  307        254     0.04109
  308        269     0.02868
  309        291     0.02719
  310        261     0.03150
  311        262     0.02832
  312        230     0.02966
  313        263     0.02620
  314        234     0.02242
  315        211     0.02882
  316        195     0.03333
  317        199     0.02680
  318        134     0.02249
  319        156     0.02343
  320        153     0.02339
  321        119     0.01579
  322        112     0.01700
  323        112     0.02289
  324        110     0.01796
  325         97     0.01674
  326         90     0.01509
  327         80     0.01345
  328         91     0.01505
  329         61     0.02254
  330         77     0.02148
  331         60     0.01456
  332         72     0.01856
  333         62     0.02285
  334         49     0.01689
  335         63     0.01830
  336         60     0.01789
  337         54     0.01315
  338         50     0.01684
  339         61     0.01618
  340         51     0.01425
  341         62     0.02503
  342         39     0.01575
  343         32     0.01344
  344         30     0.01554
  345         37     0.01713
  346         42     0.01240
  347         37     0.01119
  348         37     0.01585
  349         40     0.01275
  350         42     0.01775
  351         36     0.01822
  352         47     0.01375
  353         31     0.01792
  354         21     0.01269
  355         28     0.00961
  356         23     0.01363
  357         26     0.01235
  358         33     0.01447
  359         32     0.01861
  360         31     0.01003
  361         28     0.00938
  362         23     0.00890
  363         29     0.00998
  364         22     0.01049
  365         26     0.01379
  366         22     0.00922
  367         19     0.00844
  368         18     0.00850
  369         21     0.01568
  370         24     0.01435
  371         29     0.01023
  372         21     0.00876
  373         17     0.00865
  374         28     0.01022
  375         16     0.00863
  376         19     0.00907
  377         18     0.01377
  378         18     0.01235
  379         22     0.00861
  380         16     0.01324
  381         25     0.01266
  382         18     0.00881
  383         15     0.00800
  384         17     0.00811
  385         13     0.00745
  386         17     0.00761
  387         25     0.01025
  388         23     0.01290
  389         15     0.00747
  390         24     0.01653
  391         16     0.01066
  392         18     0.01498
  393         16     0.00985
  394         19     0.01622
  395         12     0.01114
  396         21     0.00830
  397         21     0.00933
  398         14     0.00786
  399         15     0.01170
  400         22     0.00856
  401         15     0.00741
  402         15     0.00910
  403          7     0.01185
  404         13     0.01026
  405         15     0.00772
  406         13     0.01346
  407         11     0.00794
  408         13     0.00901
  409         10     0.00701
  410         17     0.00869
  411          9     0.00737
  412         14     0.00799
  413         12     0.01363
  414         12     0.00807
  415          9     0.00743
  416         15     0.00814
  417          7     0.00674
  418          6     0.00828
  419          8     0.01815
  420         14     0.01269
  421          6     0.00791
  422          7     0.01004
  423         11     0.00984
  424         10     0.00745
  425         16     0.00832
  426         14     0.00781
  427         13     0.01167
  428         11     0.00763
  429          8     0.00853
  430         12     0.01204
  431         12     0.01349
  432         12     0.00991
  433         11     0.00852
  434         11     0.00776
  435         10     0.01300
  436         10     0.00980
  437         11     0.01036
  438         11     0.00751
  439          9     0.01150
  440          6     0.00858
  441         10     0.00963
  442          7     0.00673
  443          7     0.00677
  444         12     0.00785
  445          8     0.00690
  446          6     0.00709
  447          8     0.01043
  448          2     0.00747
  449         13     0.00774
  450          7     0.00711
  451          7     0.00694
  452         11     0.00748
  453         12     0.00796
  454         17     0.00836
  455          7     0.00707
  456          4     0.00649
  457         11     0.01352
  458          5     0.00695
  459          9     0.00745
  460          9     0.00996
  461          7     0.00801
  462          4     0.00667
  463          7     0.00978
  464          7     0.01133
  465          8     0.00700
  466          7     0.01108
  467          9     0.01293
  468          2     0.00602
  469          3     0.00657
  470          6     0.00734
  471          7     0.00687
  472          8     0.00728
  473          9     0.00690
  474          3     0.00631
  475          2     0.00604
  476          7     0.00852
  477          7     0.01030
  478          4     0.00599
  479         13     0.00788
  480          4     0.00945
  481         10     0.01170
  482          6     0.00673
  483         10     0.00757
  484          1     0.00584
  485          9     0.01125
  486          7     0.00712
  487          8     0.01321
  488          5     0.00656
  489          5     0.00649
  490          6     0.00638
  491          4     0.00612
  492          5     0.00928
  493          3     0.00980
  494          7     0.01347
  495          2     0.00622
  496          6     0.00979
  497          3     0.00599
  498          6     0.00646
  499          6     0.00937
  500          3     0.00608
  501          6     0.01406
  502          6     0.00716
  503          1     0.00625
  504          4     0.00651
  505          4     0.00664
  506          4     0.00649
  507          3     0.00580
  508          2     0.00590
  509          4     0.00627
  510          8     0.01252
  511          2     0.00600
  512          2     0.00570
  513          3     0.01154
  515          5     0.00637
  516          4     0.00622
  517          4     0.00631
  518          5     0.00682
  519          1     0.00575
  520          7     0.00665
  521          4     0.00610
  522          4     0.00632
  523          2     0.00542
  524          5     0.00650
  525          5     0.00614
  526          1     0.00563
  527          5     0.00940
  528          4     0.01078
  529          1     0.00592
  530          4     0.00627
  532          2     0.00601
  533          4     0.00582
  534          2     0.00566
  535          4     0.00565
  536          3     0.00544
  537          2     0.00499
  538          3     0.00559
  539          4     0.00607
  540          1     0.00570
  541          2     0.00573
  542          1     0.00589
  543          4     0.00686
  544          2     0.01043
  545          4     0.01013
  546          3     0.00664
  548          4     0.00646
  549          1     0.00596
  550          3     0.00759
  551          3     0.00942
  552          3     0.00619
  553          3     0.00633
  554          3     0.00640
  555          1     0.00609
  556          2     0.00628
  557          2     0.00627
  558          1     0.00624
  559          1     0.00603
  561          3     0.00641
  562          3     0.00611
  563          1     0.00615
  564          1     0.00609
  565          3     0.00638
  566          2     0.00637
  567          1     0.00643
  568          1     0.00596
  569          2     0.00601
  570          2     0.00668
  571          1     0.00548
  574          3     0.00584
  576          1     0.00606
  578          1     0.00581
  581          1     0.00597
  582          1     0.00562
  584          1     0.00877
  585          1     0.00574
  586          1     0.00567
  587          1     0.00530
  588          1     0.00514
  589          1     0.00533
  591          1     0.00518
  593          4     0.00560
  594          1     0.00554
  598          1     0.00563
  599          2     0.00542
  601          1     0.00591
  603          1     0.00559
  604          1     0.00605
  606          1     0.00588
  607          1     0.00555
  608          1     0.00540
  609          1     0.00573
  611          4     0.01011
  617          2     0.00559
  619          2     0.00573
  620          1     0.00526
  622          4     0.00626
  623          2     0.00993
  624          1     0.00613
  627          1     0.00613
  629          1     0.00567
  631          2     0.00568
  634          2     0.00632
  638          1     0.00591
  639          1     0.00554
  641          1     0.00595
  642          1     0.00881
  645          1     0.00618
  651          1     0.00608
  656          1     0.00593
  657          1     0.00600
  663          1     0.00556
  664          1     0.00562
  665          1     0.00563
  668          1     0.00606
  671          1     0.00564
  672          1     0.00549
  675          1     0.00548
  678          1     0.00541
  681          1     0.00551
  683          1     0.01182
  688          1     0.00563
  692          1     0.00524
  699          1     0.00550
  700          1     0.00899
  703          1     0.00548
  705          1     0.00562
  708          1     0.00556
  713          1     0.00616
  728          1     0.00553
  733          1     0.00566
  737          1     0.00582
  743          1     0.00568
  746          2     0.00645
  747          1     0.00575
  773          1     0.00567
  775          1     0.00621
  847          1     0.00614
  868          1     0.00575
  903          1     0.00545
took 602 iterations
Trial Time:          0.06076
    0          1     0.02326
  138          1     0.15120
  139          2     0.02145
  141          1     0.03342
  142          1     0.04990
  145          1     0.00622
  146          2     0.02626
  147          2     0.01818
  148          1     0.04253
  151          1     0.01256
  152          2     0.33298
  153          6     0.16802
  154          7     0.68214
  155         15     0.31886
  156         17     0.32364
  157         22     0.59003
  158         27     0.84446
  159         39     1.05734
  160         66     0.99751
  161         79     1.02180
  162        115     0.96377
  163        125     0.96431
  164        186     1.27281
  165        201     1.54070
  166        295     1.38548
  167        399     1.74080
  168        433     1.11004
  169        517     1.61644
  170        593     1.25616
  171        667     1.26096
  172        730     1.25207
  173        826     1.14612
  174        804     0.91002
  175        884     0.91497
  176        883     0.80120
  177        934     0.76554
  178        934     0.69561
  179        934     0.67840
  180        870     0.48501
  181        939     0.48059
  182        967     0.51160
  183        910     0.47652
  184        911     0.35249
  185        927     0.42454
  186        870     0.34276
  187        952     0.38923
  188        870     0.29496
  189        973     0.31107
  190        903     0.28544
  191        886     0.25298
  192        820     0.24211
  193        855     0.24119
  194        888     0.24975
  195        872     0.20273
  196        823     0.18558
  197        887     0.23673
  198        852     0.21076
  199        836     0.17455
  200        857     0.17789
  201        757     0.14298
  202        766     0.15459
  203        840     0.16859
  204        788     0.17329
  205        777     0.14969
  206        822     0.15694
  207        786     0.14241
  208        726     0.12089
  209        733     0.14983
  210        727     0.12494
  211        727     0.11405
  212        717     0.13254
  213        716     0.10200
  214        691     0.10741
  215        703     0.10803
  216        713     0.10197
  217        651     0.10864
  218        658     0.10187
  219        690     0.09824
  220        688     0.11129
  221        663     0.10342
  222        636     0.08798
  223        637     0.08158
  224        643     0.11810
  225        627     0.09566
  226        658     0.09239
  227        607     0.08193
  228        629     0.08440
  229        661     0.08565
  230        599     0.07490
  231        620     0.09692
  232        564     0.07107
  233        603     0.07853
  234        569     0.07343
  235        550     0.06714
  236        545     0.06293
  237        606     0.07067
  238        557     0.07178
  239        548     0.07354
  240        571     0.06919
  241        532     0.07959
  242        560     0.07164
  243        553     0.09111
  244        530     0.06733
  245        568     0.06917
  246        569     0.08080
  247        526     0.05459
  248        508     0.05778
  249        535     0.07987
  250        528     0.06141
  251        553     0.07834
  252        550     0.06549
  253        532     0.05936
  254        510     0.07487
  255        547     0.05910
  256        502     0.06050
  257        535     0.05792
  258        539     0.06290
  259        518     0.06069
  260        538     0.06289
  261        519     0.05819
  262        515     0.06731
  263        518     0.05535
  264        452     0.05065
  265        541     0.05735
  266        493     0.05300
  267        487     0.05765
  268        498     0.07082
  269        502     0.05435
  270        494     0.05402
  271        501     0.05953
  272        477     0.05594
  273        461     0.04751
  274        495     0.04802
  275        459     0.05458
  276        461     0.05364
  277        487     0.05777
  278        516     0.05059
  279        520     0.06105
  280        493     0.05690
  281        476     0.05160
  282        466     0.04894
  283        494     0.05863
  284        481     0.04555
  285        470     0.05014
  286        462     0.05560
  287        448     0.04156
  288        452     0.04477
  289        446     0.04616
  290        432     0.04342
  291        451     0.06729
  292        451     0.05006
  293        439     0.05076
  294        436     0.05033
  295        469     0.05532
  296        448     0.04712
  297        456     0.05431
  298        419     0.04814
  299        452     0.05730
  300        412     0.04249
  301        426     0.04769
  302        396     0.04036
  303        409     0.04152
  304        414     0.04012
  305        440     0.04291
  306        414     0.04072
  307        397     0.03935
  308        424     0.03856
  309        375     0.03221
  310        448     0.05371
  311        412     0.05115
  312        376     0.04075
  313        428     0.03462
  314        398     0.04734
  315        383     0.03320
  316        383     0.04516
  317        394     0.04377
  318        386     0.04483
  319        405     0.03412
  320        415     0.04009
  321        388     0.03454
  322        394     0.05069
  323        395     0.04281
  324        412     0.03474
  325        436     0.03322
  326        415     0.03843
  327        389     0.04236
  328        372     0.03402
  329        428     0.04758
  330        367     0.04132
  331        372     0.03777
  332        359     0.03819
  333        385     0.03914
  334        413     0.04363
  335        366     0.04149
  336        384     0.03340
  337        390     0.04396
  338        396     0.03776
  339        409     0.03961
  340        397     0.04196
  341        373     0.04380
  342        380     0.03785
  343        352     0.04375
  344        369     0.04378
  345        336     0.03017
  346        372     0.03739
  347        368     0.03326
  348        323     0.03007
  349        378     0.03580
  350        361     0.03152
  351        343     0.03202
  352        394     0.03918
  353        337     0.03086
  354        343     0.03319
  355        375     0.04329
  356        335     0.04005
  357        355     0.03906
  358        350     0.03340
  359        353     0.03309
  360        381     0.03045
  361        346     0.02807
  362        372     0.03629
  363        324     0.03383
  364        342     0.03098
  365        316     0.03867
  366        348     0.03288
  367        336     0.03256
  368        337     0.04398
  369        353     0.04843
  370        320     0.03522
  371        361     0.03255
  372        314     0.02695
  373        341     0.03441
  374        341     0.03602
  375        322     0.03172
  376        327     0.03045
  377        365     0.03891
  378        347     0.03303
  379        312     0.03171
  380        321     0.03442
  381        336     0.02660
  382        317     0.03938
  383        316     0.03342
  384        383     0.04029
  385        370     0.04244
  386        321     0.03917
  387        327     0.04118
  388        337     0.03195
  389        351     0.03157
  390        327     0.03530
  391        330     0.02904
  392        342     0.03081
  393        332     0.03991
  394        305     0.03281
  395        329     0.03855
  396        333     0.03087
  397        327     0.03415
  398        299     0.03394
  399        333     0.04040
  400        309     0.03883
  401        348     0.03268
  402        336     0.03648
  403        302     0.02972
  404        312     0.03157
  405        287     0.02679
  406        300     0.03346
  407        310     0.02540
  408        330     0.03124
  409        319     0.03696
  410        292     0.02786
  411        296     0.02839
  412        296     0.02959
  413        307     0.03631
  414        279     0.03427
  415        285     0.03053
  416        296     0.02993
  417        253     0.02886
  418        252     0.03096
  419        235     0.02499
  420        218     0.03023
  421        199     0.02442
  422        179     0.02969
  423        172     0.02287
  424        189     0.02351
  425        163     0.02014
  426        135     0.01841
  427        100     0.01385
  428        118     0.02054
  429         83     0.01585
  430         85     0.01417
  431        100     0.01859
  432         83     0.01463
  433         83     0.01356
  434         92     0.01696
  435         71     0.02531
  436         73     0.01751
  437         62     0.01990
  438         70     0.01618
  439         64     0.02255
  440         72     0.01394
  441         58     0.02288
  442         46     0.01478
  443         46     0.01289
  444         70     0.02308
  445         51     0.02037
  446         36     0.01484
  447         54     0.01930
  448         54     0.01729
  449         44     0.01640
  450         33     0.01602
  451         54     0.01720
  452         42     0.01326
  453         29     0.01414
  454         25     0.00929
  455         33     0.01439
  456         39     0.01592
  457         35     0.01631
  458         32     0.01345
  459         31     0.01038
  460         38     0.01061
  461         33     0.01948
  462         27     0.01053
  463         30     0.00962
  464         32     0.00975
  465         27     0.01351
  466         22     0.00901
  467         27     0.01142
  468         32     0.01010
  469         17     0.00878
  470         29     0.01694
  471         22     0.01386
  472         15     0.01166
  473         21     0.01520
  474         24     0.01018
  475         26     0.00984
  476         22     0.01620
  477         12     0.00817
  478         22     0.00900
  479         29     0.01420
  480         15     0.00822
  481         21     0.01153
  482         23     0.01384
  483         23     0.01173
  484         20     0.01144
  485         20     0.00864
  486         21     0.01149
  487         22     0.00890
  488         23     0.01115
  489         21     0.01211
  490         17     0.00807
  491         18     0.00848
  492         17     0.01274
  493         20     0.00955
  494         18     0.00884
  495         18     0.01080
  496         15     0.00832
  497         20     0.01134
  498         19     0.00900
  499         19     0.01298
  500         16     0.00835
  501         10     0.00750
  502         10     0.00999
  503         12     0.00734
  504         17     0.00872
  505         20     0.01138
  506         19     0.01213
  507         21     0.00904
  508         16     0.01280
  509         15     0.01027
  510         19     0.01342
  511         10     0.00748
  512          4     0.00639
  513         13     0.00974
  514          9     0.00736
  515          9     0.00964
  516         13     0.01645
  517          7     0.00951
  518         17     0.00841
  519         13     0.00791
  520          9     0.00721
  521          9     0.00703
  522          9     0.01106
  523         12     0.01885
  524         11     0.01296
  525         13     0.01328
  526         19     0.01111
  527         11     0.01110
  528          7     0.00739
  529         11     0.00774
  530          8     0.01177
  531         11     0.00999
  532         10     0.00775
  533          9     0.00954
  534         12     0.01168
  535          6     0.01111
  536          7     0.00800
  537          6     0.00647
  538         15     0.00817
  539         15     0.00801
  540         16     0.00778
  541          9     0.00738
  542          8     0.00764
  543         14     0.01126
  544          4     0.00622
  545          8     0.01022
  546          9     0.01039
  547          7     0.00722
  548          6     0.00813
  549          7     0.01106
  550         11     0.01310
  551          8     0.00702
  552         14     0.00785
  553          7     0.00658
  554          9     0.00942
  555          6     0.00716
  556          8     0.01344
  557          5     0.00667
  558         14     0.00811
  559          8     0.00736
  560          8     0.00738
  561          9     0.00808
  562         15     0.00814
  563         12     0.00782
  564          8     0.01050
  565          6     0.00645
  566          5     0.00649
  567          7     0.01112
  568          6     0.00680
  569          7     0.00860
  570          3     0.00640
  571         10     0.01198
  572          4     0.01020
  573          2     0.00653
  574          7     0.00717
  575          6     0.01103
  576          6     0.01104
  577          6     0.00655
  578          5     0.00672
  579          2     0.00596
  580          6     0.00628
  581          7     0.00731
  582         10     0.00776
  583          3     0.00821
  584          9     0.00853
  585          7     0.00980
  586          9     0.01091
  587          6     0.00702
  588          4     0.00641
  589          7     0.00733
  590          8     0.01277
  591          3     0.00676
  592          8     0.00754
  593          8     0.01010
  594          6     0.01164
  595          5     0.00680
  596          8     0.01189
  597          4     0.01049
  598          4     0.00906
  599          1     0.00550
  600          6     0.00638
  601         11     0.01073
  602          3     0.00612
  603          8     0.00911
  604          4     0.00621
  605          4     0.00636
  606          1     0.00558
  608          8     0.01244
  609          5     0.00661
  610          7     0.00939
  611          5     0.01046
  612          3     0.00597
  613          2     0.00624
  615          3     0.00622
  616          4     0.00649
  617          2     0.01177
  618          3     0.00627
  619          3     0.00597
  620          3     0.00637
  621          2     0.00585
  622          7     0.00711
  623          2     0.00582
  624          5     0.00979
  625          5     0.00612
  626          4     0.00628
  627          7     0.01075
  628          5     0.00679
  629          2     0.00596
  630          3     0.00587
  631          1     0.00579
  632          4     0.00635
  633          4     0.00688
  634          4     0.00610
  635          4     0.00960
  636          3     0.00608
  637          6     0.00625
  638          7     0.00635
  639          2     0.00590
  641          1     0.00611
  642          2     0.00542
  643          3     0.00601
  644          3     0.00608
  645          4     0.00903
  646          1     0.00576
  647          4     0.00937
  648          1     0.00586
  649          3     0.00577
  650          3     0.00607
  651          1     0.00570
  652          3     0.00877
  653          3     0.00599
  656          3     0.00578
  657          2     0.00989
  658          2     0.00599
  659          2     0.00561
  660          1     0.00553
  661          3     0.00605
  662          3     0.00602
  664          5     0.00595
  665          2     0.01080
  666          2     0.00581
  667          2     0.00582
  668          2     0.00594
  669          2     0.00590
  672          2     0.00558
  673          2     0.00580
  675          1     0.00542
  677          3     0.00549
  679          1     0.00626
  681          3     0.00598
  683          3     0.00712
  686          2     0.00609
  688          1     0.00582
  689          1     0.00530
  690          1     0.00561
  692          2     0.00557
  694          2     0.00557
  697          1     0.00556
  699          1     0.00573
  702          1     0.00576
  703          3     0.00584
  708          2     0.00581
  710          1     0.00552
  714          2     0.00573
  715          1     0.00545
  716          4     0.01002
  717          1     0.00562
  718          1     0.00560
  719          2     0.00557
  720          2     0.00549
  721          1     0.00564
  722          1     0.00607
  725          3     0.00588
  727          2     0.00985
  731          2     0.00600
  732          1     0.00538
  733          1     0.00607
  734          1     0.00537
  735          1     0.00551
  736          1     0.00566
  741          1     0.00574
  743          1     0.00996
  744          1     0.00551
  746          1     0.00566
  751          1     0.00590
  758          1     0.00582
  759          1     0.00593
  761          1     0.00593
  763          1     0.00572
  767          1     0.00609
  772          1     0.00574
  777          1     0.00572
  778          2     0.00584
  782          2     0.00598
  785          1     0.00612
  786          1     0.00984
  796          1     0.00585
  800          1     0.00567
  805          1     0.00581
  807          1     0.00607
  808          1     0.00626
  811          1     0.01002
  815          1     0.00583
  821          1     0.00583
  827          1     0.00561
  840          2     0.00624
  842          1     0.00612
  851          1     0.00613
  853          1     0.00579
  856          1     0.00602
  874          2     0.00740
  952          1     0.00645
  971          1     0.00664
 1014          1     0.00611
took 592 iterations
Trial Time:          0.06024
    0          1     0.05554
   13          1     0.00640
   14          1     0.10528
   15          1     0.12142
   17          2     0.16704
   18          2     0.09695
   19          6     0.34672
   20          6     0.22337
   21          4     0.04917
   22          9     0.37125
   23         11     0.90983
   24         30     0.85218
   25         49     0.88367
   26         47     0.85934
   27         72     1.04037
   28         83     1.23180
   29        124     1.19248
   30        151     1.19277
   31        206     1.48571
   32        285     1.62970
   33        366     1.43697
   34        422     1.27277
   35        481     1.17623
   36        645     1.48221
   37        645     1.15662
   38        702     1.22477
   39        761     1.11806
   40        836     1.25525
   41        821     0.88290
   42        872     0.90904
   43        948     0.87297
   44        929     0.69121
   45        950     0.61430
   46        893     0.53304
   47        866     0.51301
   48        922     0.51721
   49       1007     0.44506
   50        919     0.40565
   51        914     0.38298
   52        948     0.43489
   53        916     0.32833
   54        945     0.36707
   55        839     0.29566
   56        864     0.27003
   57        855     0.25755
   58        862     0.28206
   59        897     0.23935
   60        822     0.19773
   61        909     0.22600
   62        852     0.22653
   63        802     0.18709
   64        832     0.20026
   65        895     0.19722
   66        825     0.19844
   67        789     0.15516
   68        771     0.16525
   69        836     0.19358
   70        810     0.14927
   71        746     0.14104
   72        798     0.12626
   73        801     0.14930
   74        764     0.15639
   75        720     0.12601
   76        712     0.13193
   77        705     0.13675
   78        679     0.11421
   79        737     0.11820
   80        709     0.11638
   81        715     0.12209
   82        713     0.10766
   83        672     0.09690
   84        701     0.10520
   85        660     0.10332
   86        660     0.11503
   87        706     0.10968
   88        658     0.08853
   89        658     0.08856
   90        661     0.08384
   91        617     0.07823
   92        633     0.09362
   93        610     0.08686
   94        637     0.08488
   95        603     0.07231
   96        599     0.08345
   97        662     0.08806
   98        585     0.07634
   99        580     0.07862
  100        589     0.09168
  101        542     0.06657
  102        587     0.07024
  103        522     0.07503
  104        568     0.06443
  105        581     0.08490
  106        576     0.06626
  107        550     0.08081
  108        545     0.07037
  109        535     0.05926
  110        569     0.07083
  111        560     0.07241
  112        582     0.06756
  113        547     0.08425
  114        549     0.05669
  115        533     0.06951
  116        549     0.07214
  117        536     0.06765
  118        504     0.05824
  119        520     0.07168
  120        517     0.05895
  121        533     0.07510
  122        550     0.06485
  123        539     0.06737
  124        537     0.06210
  125        539     0.05337
  126        496     0.05713
  127        511     0.06342
  128        513     0.05144
  129        523     0.06141
  130        512     0.05059
  131        491     0.05183
  132        531     0.05482
  133        497     0.05922
  134        489     0.05249
  135        504     0.05939
  136        509     0.05858
  137        515     0.05178
  138        493     0.05438
  139        469     0.05520
  140        474     0.06153
  141        502     0.06008
  142        467     0.04823
  143        484     0.05308
  144        480     0.06173
  145        459     0.05067
  146        506     0.04903
  147        439     0.05091
  148        511     0.05385
  149        483     0.04944
  150        428     0.03860
  151        461     0.06135
  152        469     0.05376
  153        496     0.04583
  154        473     0.04416
  155        461     0.05922
  156        463     0.04780
  157        500     0.05601
  158        440     0.03951
  159        406     0.04107
  160        423     0.04847
  161        407     0.05379
  162        471     0.05058
  163        424     0.04278
  164        465     0.04995
  165        419     0.03697
  166        435     0.04813
  167        419     0.04473
  168        450     0.04551
  169        422     0.04208
  170        392     0.04272
  171        407     0.03953
  172        419     0.03724
  173        454     0.04772
  174        403     0.04891
  175        409     0.04087
  176        419     0.04188
  177        417     0.04097
  178        406     0.03999
  179        407     0.04370
  180        429     0.04485
  181        395     0.03631
  182        393     0.04193
  183        384     0.03931
  184        395     0.04464
  185        413     0.03232
  186        391     0.03610
  187        400     0.04467
  188        393     0.04611
  189        412     0.04550
  190        413     0.04003
  191        408     0.04120
  192        409     0.03744
  193        373     0.03739
  194        389     0.04684
  195        451     0.04304
  196        377     0.03393
  197        414     0.04284
  198        364     0.03484
  199        390     0.04131
  200        372     0.03906
  201        379     0.03331
  202        394     0.03987
  203        358     0.03266
  204        377     0.04117
  205        379     0.04359
  206        382     0.04076
  207        392     0.04686
  208        368     0.03997
  209        351     0.03549
  210        407     0.04194
  211        372     0.03964
  212        344     0.03414
  213        368     0.04080
  214        357     0.03562
  215        403     0.03225
  216        364     0.03885
  217        361     0.03245
  218        365     0.03235
  219        386     0.03674
  220        344     0.03241
  221        304     0.03408
  222        377     0.03902
  223        341     0.03868
  224        328     0.05149
  225        291     0.03237
  226        360     0.03398
  227        348     0.02852
  228        356     0.03226
  229        353     0.03538
  230        326     0.02886
  231        348     0.03154
  232        358     0.03308
  233        337     0.02867
  234        358     0.03498
  235        332     0.03303
  236        323     0.03402
  237        327     0.03068
  238        321     0.02649
  239        341     0.03200
  240        349     0.02799
  241        345     0.03469
  242        333     0.02912
  243        349     0.03600
  244        317     0.03216
  245        331     0.03387
  246        335     0.02812
  247        337     0.02996
  248        318     0.03437
  249        308     0.03081
  250        344     0.03604
  251        368     0.03500
  252        325     0.03647
  253        353     0.03424
  254        355     0.04005
  255        332     0.03845
  256        350     0.03390
  257        351     0.04331
  258        314     0.03769
  259        339     0.03909
  260        319     0.02738
  261        343     0.03294
  262        327     0.03058
  263        321     0.03532
  264        341     0.03564
  265        298     0.03408
  266        313     0.03285
  267        331     0.03154
  268        331     0.03451
  269        298     0.03131
  270        262     0.02476
  271        323     0.03569
  272        278     0.02767
  273        312     0.03012
  274        344     0.02837
  275        324     0.02705
  276        310     0.03070
  277        290     0.02656
  278        290     0.03972
  279        277     0.03039
  280        288     0.03296
  281        282     0.02772
  282        272     0.02805
  283        260     0.02729
  284        269     0.03385
  285        219     0.02265
  286        221     0.02677
  287        193     0.04167
  288        203     0.02501
  289        191     0.02661
  290        183     0.02550
  291        167     0.02474
  292        123     0.01436
  293        149     0.02164
  294        114     0.01815
  295         96     0.01648
  296        103     0.02079
  297         93     0.01399
  298         81     0.01912
  299         73     0.01426
  300         88     0.01400
  301         93     0.01801
  302         65     0.02370
  303         76     0.01795
  304         66     0.02580
  305         62     0.01925
  306         53     0.02045
  307         57     0.01952
  308         59     0.01334
  309         54     0.02026
  310         55     0.01984
  311         55     0.01832
  312         56     0.01523
  313         50     0.01947
  314         42     0.02068
  315         39     0.01110
  316         29     0.01491
  317         44     0.01696
  318         33     0.01473
  319         43     0.01162
  320         41     0.01806
  321         33     0.01958
  322         34     0.01151
  323         43     0.01419
  324         41     0.01862
  325         26     0.01155
  326         32     0.01595
  327         34     0.01318
  328         32     0.01225
  329         17     0.00781
  330         37     0.01203
  331         27     0.00988
  332         30     0.01307
  333         28     0.01107
  334         21     0.00903
  335         21     0.01010
  336         26     0.01415
  337         29     0.01444
  338         14     0.01388
  339         26     0.01210
  340         27     0.01192
  341         25     0.00923
  342         14     0.01103
  343         22     0.00938
  344         25     0.00960
  345         19     0.00863
  346         16     0.01332
  347         20     0.00891
  348         24     0.01190
  349         20     0.00844
  350         26     0.00949
  351         18     0.00859
  352         15     0.00804
  353         16     0.01080
  354         24     0.01519
  355         20     0.00875
  356         19     0.01071
  357         17     0.00823
  358         24     0.01191
  359         17     0.01146
  360         15     0.00873
  361         15     0.01271
  362         16     0.00820
  363         13     0.01020
  364         20     0.00924
  365         17     0.01120
  366         13     0.01041
  367         20     0.01459
  368         19     0.00895
  369         23     0.01034
  370         17     0.00894
  371         16     0.00913
  372         12     0.00806
  373         14     0.01373
  374         19     0.01168
  375         15     0.00829
  376         11     0.00770
  377         13     0.00813
  378          7     0.00708
  379         13     0.00809
  380         15     0.00810
  381         14     0.00830
  382         10     0.00889
  383         10     0.00743
  384          9     0.01050
  385         10     0.00776
  386         12     0.01829
  387         20     0.01119
  388         12     0.01262
  389         11     0.01729
  390          7     0.01112
  391         10     0.00806
  392          8     0.00859
  393         10     0.00978
  394          8     0.00688
  395         10     0.00717
  396         13     0.01234
  397         15     0.01300
  398         10     0.00759
  399          9     0.00671
  400         11     0.01045
  401          8     0.00707
  402         17     0.01469
  403          7     0.00701
  404          9     0.00763
  405         12     0.00832
  406         11     0.00799
  407         11     0.01315
  408         10     0.00801
  409         11     0.00816
  410         15     0.00828
  411         10     0.00893
  412          4     0.01116
  413          6     0.00797
  414          8     0.00680
  415         10     0.01109
  416          8     0.00722
  417          9     0.00728
  418          2     0.00586
  419          9     0.00704
  420          9     0.00701
  421         18     0.01001
  422          7     0.00708
  423         11     0.00737
  424          7     0.00709
  425         10     0.00747
  426          7     0.00707
  427         12     0.01597
  428          4     0.00648
  429          8     0.00715
  430          7     0.00732
  431          9     0.00869
  432          6     0.00659
  433          5     0.00634
  434         11     0.01119
  435          7     0.00709
  436          8     0.00751
  437          2     0.00615
  438          7     0.01181
  439          3     0.00626
  440          3     0.00660
  441          5     0.00661
  442          9     0.00738
  443          5     0.00707
  444          3     0.00966
  445          9     0.01174
  446          5     0.00659
  447          8     0.00711
  448          7     0.01262
  449          4     0.00856
  450          6     0.00840
  451          3     0.00606
  452         10     0.01096
  453          8     0.01192
  454          9     0.00763
  455          9     0.00761
  456          7     0.00986
  457         10     0.01276
  458          5     0.00668
  459          7     0.01101
  460          5     0.00786
  461          7     0.00685
  462          4     0.00653
  463          3     0.00606
  464          6     0.01125
  465          6     0.01295
  466          3     0.00961
  467          7     0.00679
  468          6     0.00661
  469          4     0.00643
  470          3     0.00678
  471          6     0.01284
  472          5     0.00703
  473          1     0.00612
  474          4     0.00645
  475          4     0.01115
  476          4     0.00656
  477          3     0.00618
  478          5     0.00672
  479          4     0.00774
  480          4     0.00657
  481          2     0.00636
  482          5     0.01195
  483          2     0.00647
  484          3     0.00614
  485          3     0.00633
  486          3     0.00628
  487          4     0.00649
  488          3     0.00645
  489          3     0.00625
  490          8     0.00701
  491          5     0.01423
  492          3     0.00646
  493          3     0.00606
  494          6     0.00635
  495          1     0.00595
  497          3     0.01040
  498          4     0.00613
  499          3     0.00657
  500          1     0.00614
  501          2     0.00628
  502          3     0.00640
  503          6     0.00683
  504          5     0.00671
  505          5     0.00965
  506          4     0.00617
  507          4     0.00637
  509          4     0.00634
  510          2     0.00600
  511          2     0.00564
  513          5     0.00926
  514          2     0.00594
  515          3     0.00604
  516          3     0.00597
  517          3     0.01007
  518          2     0.00689
  519          2     0.00619
  520          5     0.00671
  521          1     0.00594
  522          3     0.00607
  524          1     0.00573
  525          5     0.01051
  526          2     0.00632
  529          2     0.00563
  530          1     0.00599
  531          1     0.00593
  532          6     0.00647
  534          2     0.00605
  535          2     0.00614
  536          2     0.00558
  537          1     0.00796
  538          2     0.00624
  539          2     0.00601
  540          1     0.00570
  541          1     0.00564
  542          2     0.00568
  544          2     0.00598
  546          1     0.00547
  547          1     0.00553
  551          2     0.00575
  552          3     0.00668
  555          2     0.00520
  558          1     0.00527
  559          1     0.00550
  560          2     0.00565
  562          2     0.00572
  563          1     0.00552
  564          1     0.00516
  566          2     0.00574
  569          1     0.00573
  570          1     0.00549
  571          2     0.00558
  575          2     0.00584
  578          2     0.00558
  579          1     0.00590
  580          1     0.00544
  582          1     0.00579
  585          1     0.00570
  586          1     0.00988
  587          2     0.00578
  588          2     0.00597
  589          1     0.00586
  590          1     0.00562
  592          3     0.00595
  594          2     0.00585
  595          3     0.01005
  596          1     0.00593
  598          1     0.00576
  603          1     0.00558
  606          2     0.00550
  609          1     0.00534
  611          1     0.00572
  615          2     0.01004
  617          1     0.00586
  626          2     0.00552
  629          1     0.00535
  633          1     0.00512
  634          1     0.00536
  642          2     0.00545
  646          1     0.00545
  648          1     0.00533
  649          1     0.00559
  650          1     0.00542
  654          2     0.01161
  657          1     0.00545
  662          1     0.00528
  666          1     0.00570
  676          1     0.00563
  677          1     0.00549
  679          1     0.00908
  686          1     0.00579
  689          1     0.00578
  698          1     0.00597
  705          1     0.00573
  707          1     0.00631
  711          1     0.00561
  718          2     0.00568
  719          1     0.00566
  744          1     0.00550
  746          1     0.00635
  822          1     0.00585
  839          1     0.00602
  882          1     0.00560
took 590 iterations
Trial Time:          0.06010
    0          1     0.02275
   34          1     1.34491
   35         10     0.12267
   36         12     0.44089
   37         14     0.31228
   38         12     0.17453
   39         24     0.65705
   40         38     0.82405
   41         52     1.01734
   42         76     1.42010
   43         93     1.37318
   44        156     1.11377
   45        148     0.95162
   46        212     1.46515
   47        262     1.57788
   48        344     1.33828
   49        407     1.51754
   50        534     1.44431
   51        541     1.26027
   52        653     1.31981
   53        709     1.29462
   54        773     1.16870
   55        825     0.94827
   56        892     1.03454
   57        907     0.81251
   58        901     0.73670
   59        935     0.69730
   60        909     0.66696
   61        924     0.60539
   62        947     0.54691
   63        923     0.46176
   64        961     0.50345
   65        897     0.40548
   66        951     0.37376
   67        969     0.39798
   68        981     0.32056
   69        915     0.33600
   70        871     0.31736
   71        900     0.31366
   72        859     0.25090
   73        868     0.24611
   74        793     0.21696
   75        858     0.23504
   76        879     0.23908
   77        830     0.20503
   78        838     0.19942
   79        846     0.21475
   80        889     0.21767
   81        813     0.17661
   82        776     0.15800
   83        829     0.16234
   84        809     0.18819
   85        769     0.13079
   86        767     0.14572
   87        817     0.17021
   88        759     0.14015
   89        775     0.14154
   90        738     0.12908
   91        764     0.12631
   92        736     0.13170
   93        668     0.10224
   94        727     0.13022
   95        690     0.12045
   96        676     0.11730
   97        668     0.10701
   98        665     0.10325
   99        687     0.10314
  100        686     0.10380
  101        672     0.10639
  102        631     0.09366
  103        656     0.08848
  104        671     0.08372
  105        672     0.08578
  106        675     0.08776
  107        618     0.09092
  108        636     0.08936
  109        613     0.08191
  110        616     0.09489
  111        636     0.09277
  112        659     0.09423
  113        586     0.08183
  114        581     0.08348
  115        559     0.07280
  116        576     0.07716
  117        630     0.07687
  118        536     0.07059
  119        559     0.07771
  120        567     0.06936
  121        556     0.07019
  122        565     0.06679
  123        561     0.06604
  124        574     0.07909
  125        566     0.07759
  126        560     0.07087
  127        550     0.06557
  128        504     0.05704
  129        531     0.05645
  130        534     0.06780
  131        511     0.07242
  132        545     0.06703
  133        518     0.06114
  134        552     0.06192
  135        503     0.08146
  136        523     0.06077
  137        530     0.07057
  138        523     0.06458
  139        533     0.05481
  140        513     0.06369
  141        512     0.06273
  142        479     0.06177
  143        490     0.04984
  144        518     0.06296
  145        497     0.07427
  146        526     0.06681
  147        524     0.05179
  148        523     0.05528
  149        507     0.04744
  150        490     0.05307
  151        544     0.05713
  152        495     0.05676
  153        520     0.05745
  154        484     0.04783
  155        465     0.04957
  156        493     0.04991
  157        484     0.05896
  158        492     0.04763
  159        441     0.04757
  160        460     0.05194
  161        476     0.05233
  162        547     0.05323
  163        445     0.05459
  164        438     0.05648
  165        443     0.04881
  166        452     0.04604
  167        473     0.05695
  168        466     0.05534
  169        430     0.05299
  170        469     0.04544
  171        451     0.05628
  172        435     0.04887
  173        451     0.04853
  174        445     0.04391
  175        435     0.04857
  176        453     0.04307
  177        439     0.05264
  178        450     0.05577
  179        429     0.04443
  180        409     0.04587
  181        438     0.04215
  182        425     0.04706
  183        426     0.04482
  184        416     0.04205
  185        418     0.03509
  186        447     0.04655
  187        447     0.04603
  188        407     0.03381
  189        411     0.04835
  190        378     0.04445
  191        411     0.05596
  192        412     0.04211
  193        383     0.04015
  194        381     0.03996
  195        375     0.04083
  196        396     0.03713
  197        452     0.04858
  198        459     0.04137
  199        411     0.04123
  200        403     0.04161
  201        364     0.03912
  202        404     0.03756
  203        389     0.05138
  204        383     0.04294
  205        376     0.03781
  206        400     0.04127
  207        382     0.03274
  208        395     0.04165
  209        368     0.04672
  210        398     0.04017
  211        392     0.03461
  212        375     0.04654
  213        390     0.04034
  214        381     0.03595
  215        383     0.03800
  216        383     0.03924
  217        403     0.04560
  218        406     0.04185
  219        384     0.04186
  220        391     0.03857
  221        404     0.02843
  222        360     0.04236
  223        390     0.04306
  224        372     0.04319
  225        342     0.04029
  226        377     0.03745
  227        372     0.03538
  228        343     0.03359
  229        376     0.03764
  230        359     0.03929
  231        332     0.03975
  232        374     0.03117
  233        326     0.04012
  234        358     0.02922
  235        345     0.03427
  236        340     0.04087
  237        347     0.03620
  238        368     0.03439
  239        357     0.02971
  240        389     0.03518
  241        379     0.03460
  242        338     0.03406
  243        336     0.03675
  244        343     0.02710
  245        321     0.02885
  246        323     0.03367
  247        334     0.02984
  248        341     0.02769
  249        337     0.03727
  250        328     0.03815
  251        342     0.04337
  252        349     0.03324
  253        363     0.03347
  254        334     0.03117
  255        324     0.02843
  256        331     0.03443
  257        335     0.02905
  258        317     0.03094
  259        323     0.03328
  260        309     0.03383
  261        352     0.03825
  262        323     0.03753
  263        341     0.03305
  264        279     0.02549
  265        350     0.03134
  266        299     0.04216
  267        351     0.03268
  268        339     0.03235
  269        341     0.03884
  270        350     0.04060
  271        339     0.03486
  272        325     0.03489
  273        354     0.03342
  274        322     0.03774
  275        350     0.03547
  276        355     0.03597
  277        329     0.02994
  278        343     0.03148
  279        325     0.02840
  280        330     0.03612
  281        323     0.03662
  282        311     0.03389
  283        342     0.03406
  284        308     0.03712
  285        310     0.03460
  286        294     0.02826
  287        311     0.03424
  288        296     0.02505
  289        310     0.03599
  290        339     0.03886
  291        305     0.03086
  292        314     0.03094
  293        292     0.03011
  294        330     0.03368
  295        299     0.03208
  296        265     0.02830
  297        263     0.02903
  298        258     0.02512
  299        240     0.02409
  300        216     0.02333
  301        219     0.02723
  302        193     0.02782
  303        215     0.02562
  304        187     0.02411
  305        170     0.02327
  306        145     0.01645
  307        140     0.02414
  308        137     0.02448
  309        110     0.01432
  310         88     0.01794
  311        103     0.01935
  312        110     0.01427
  313         91     0.01398
  314         90     0.02196
  315         79     0.01594
  316         71     0.01469
  317         71     0.01857
  318         78     0.02366
  319         70     0.01654
  320         74     0.02279
  321         76     0.02159
  322         54     0.01598
  323         51     0.02050
  324         45     0.01478
  325         53     0.01337
  326         41     0.01512
  327         47     0.01527
  328         41     0.01871
  329         51     0.02338
  330         41     0.01860
  331         45     0.01430
  332         38     0.01101
  333         42     0.01220
  334         38     0.01508
  335         42     0.01665
  336         40     0.01165
  337         26     0.01587
  338         32     0.01243
  339         38     0.01172
  340         37     0.01423
  341         37     0.01498
  342         26     0.01418
  343         27     0.01331
  344         30     0.01739
  345         19     0.00859
  346         37     0.01589
  347         32     0.00944
  348         28     0.01405
  349         22     0.01015
  350         23     0.01050
  351         25     0.00893
  352         21     0.01015
  353         28     0.01416
  354          8     0.00765
  355         20     0.01187
[...]
  629          2     0.00603
  630          2     0.00596
  631          2     0.00588
  632          3     0.00641
  633          3     0.00613
  634          1     0.00590
  635          3     0.00623
  636          3     0.00580
  637          2     0.00879
  640          2     0.00619
  641          1     0.00597
  642          3     0.01136
  643          1     0.00582
  644          1     0.00549
  645          3     0.00610
  646          1     0.00531
  649          1     0.00522
  650          1     0.00574
  651          3     0.00600
  654          2     0.00588
  655          3     0.00583
  657          2     0.00651
  658          1     0.00663
  659          1     0.00640
  665          1     0.00641
  667          2     0.00627
  668          3     0.00605
  669          1     0.00631
  671          1     0.00609
  672          3     0.00584
  674          1     0.00596
  678          1     0.00583
  680          2     0.00572
  681          1     0.00592
  683          1     0.00579
  686          1     0.00564
  687          1     0.00551
  689          1     0.00600
  690          2     0.00574
  691          1     0.00960
  692          1     0.00594
  693          2     0.00613
  695          1     0.03579
  697          2     0.00635
  699          1     0.00549
  700          2     0.00579
  701          1     0.00574
  702          2     0.00609
  703          3     0.00609
  706          1     0.00613
  708          1     0.00599
  709          1     0.00595
  710          1     0.00563
  712          1     0.00558
  716          1     0.00585
  717          1     0.00544
  719          1     0.00591
  720          1     0.00604
  725          1     0.00594
  726          2     0.00891
  727          1     0.00552
  732          1     0.00618
  739          1     0.00604
  743          1     0.00565
  747          2     0.00615
  749          1     0.01200
  753          1     0.00602
  754          1     0.00569
  758          2     0.00674
  759          1     0.00713
  760          1     0.00669
  771          1     0.00652
  775          1     0.00646
  778          1     0.00654
  781          1     0.00651
  782          1     0.00631
  783          1     0.03325
  797          1     0.00628
  801          2     0.00572
  810          1     0.00541
  813          1     0.00513
  815          1     0.00506
  827          2     0.00556
  850          1     0.00638
  857          1     0.00695
  931          1     0.00595
  934          1     0.00587
  986          1     0.00569
took 599 iterations
Trial Time:          0.06130
    0          1     0.02384
   97          1     0.15260
   99          1     0.00807
  104          2     0.45623
  105          5     0.35450
  106          5     0.09616
  107         10     0.28333
  108         12     0.38074
  109         10     0.26468
  110         15     0.25897
  111         18     0.60180
  112         30     1.65435
  113         48     1.24254
  114         90     1.25734
  115        123     1.35388
  116        165     1.47262
  117        218     1.27934
  118        283     1.58690
  119        382     1.53877
  120        449     1.48480
  121        545     1.29399
  122        597     1.19751
  123        673     1.20383
  124        717     1.23494
  125        765     1.18823
  126        830     1.11673
  127        845     0.93114
  128        879     0.82420
  129        862     0.73017
  130        943     0.73915
  131        942     0.69116
  132        946     0.56356
  133        953     0.52906
  134        947     0.47072
  135        924     0.44943
  136        902     0.43229
  137        952     0.45149
  138        977     0.40242
  139        935     0.32763
  140        932     0.34466
  141        865     0.30221
  142        869     0.26543
  143        921     0.30075
  144        851     0.24645
  145        849     0.22311
  146        856     0.22078
  147        842     0.22124
  148        844     0.19819
  149        845     0.20151
  150        776     0.20438
  151        899     0.22102
  152        827     0.17037
  153        828     0.17239
  154        807     0.17094
  155        786     0.17294
  156        799     0.15021
  157        775     0.14114
  158        783     0.15099
  159        787     0.14309
  160        717     0.13709
  161        728     0.12371
  162        719     0.13238
  163        697     0.11289
  164        657     0.11411
  165        721     0.12222
  166        697     0.12655
  167        669     0.09999
  168        649     0.09730
  169        719     0.10797
  170        658     0.10062
  171        733     0.11016
  172        674     0.09257
  173        695     0.11679
  174        666     0.09889
  175        634     0.09611
  176        687     0.10088
  177        678     0.09084
  178        661     0.09379
  179        614     0.09528
  180        629     0.08371
  181        589     0.07989
  182        616     0.08246
  183        574     0.07849
  184        615     0.07333
  185        617     0.07362
  186        596     0.07564
  187        611     0.08329
  188        598     0.07488
  189        559     0.07662
  190        585     0.06638
  191        537     0.06839
  192        563     0.08510
  193        581     0.07789
  194        545     0.05633
  195        579     0.07834
  196        544     0.06841
  197        540     0.05725
  198        534     0.06446
  199        547     0.05678
  200        537     0.06811
  201        555     0.05542
  202        548     0.09133
  203        545     0.06809
  204        545     0.06709
  205        563     0.06079
  206        506     0.06300
  207        557     0.06016
  208        500     0.06173
  209        545     0.06335
  210        515     0.06339
  211        535     0.04979
  212        491     0.06399
  213        481     0.05587
  214        527     0.04885
  215        524     0.05833
  216        494     0.05672
  217        488     0.06284
  218        482     0.05727
  219        490     0.05391
  220        493     0.04875
  221        498     0.05337
  222        513     0.06114
  223        490     0.05667
  224        513     0.05173
  225        518     0.05768
  226        500     0.06150
  227        493     0.05040
  228        468     0.04778
  229        445     0.05381
  230        522     0.06026
  231        511     0.05391
  232        470     0.04702
  233        447     0.04870
  234        480     0.05222
  235        490     0.05674
  236        469     0.05146
  237        457     0.04997
  238        458     0.05439
  239        426     0.04409
  240        474     0.04444
  241        449     0.05165
  242        444     0.04174
  243        464     0.04840
  244        442     0.04666
  245        460     0.05034
  246        442     0.04766
  247        423     0.04395
  248        481     0.05279
  249        423     0.04653
  250        419     0.04164
  251        425     0.04580
  252        410     0.04762
  253        415     0.04154
  254        451     0.03905
  255        404     0.03756
  256        419     0.03850
  257        407     0.04347
  258        421     0.04236
  259        416     0.04215
  260        392     0.04132
  261        427     0.03614
  262        407     0.04460
  263        438     0.04026
  264        389     0.03888
  265        418     0.03912
  266        398     0.03543
  267        395     0.04050
  268        412     0.03934
  269        422     0.04513
  270        432     0.04678
  271        391     0.03817
  272        410     0.06090
  273        411     0.05138
  274        378     0.03941
  275        404     0.04264
  276        359     0.03333
  277        402     0.03727
  278        412     0.03948
  279        392     0.04127
  280        382     0.04282
  281        391     0.03839
  282        399     0.04194
  283        386     0.04342
  284        387     0.04507
  285        371     0.03477
  286        435     0.04727
  287        384     0.03495
  288        360     0.04116
  289        361     0.03285
  290        366     0.03771
  291        365     0.03297
  292        382     0.04026
  293        337     0.04199
  294        385     0.03637
  295        361     0.03647
  296        390     0.03864
  297        345     0.03498
  298        380     0.03171
  299        376     0.03024
  300        363     0.04491
  301        402     0.03544
  302        358     0.04004
  303        358     0.03396
  304        347     0.03262
  305        336     0.03432
  306        340     0.03116
  307        320     0.03825
  308        336     0.03126
  309        394     0.03274
  310        342     0.04081
  311        357     0.03413
  312        326     0.03657
  313        354     0.02893
  314        343     0.02894
  315        371     0.03434
  316        324     0.02727
  317        310     0.02743
  318        355     0.03866
  319        352     0.02978
  320        341     0.03201
  321        330     0.03002
  322        354     0.03582
  323        313     0.03549
  324        335     0.03088
  325        358     0.02949
  326        339     0.03140
  327        328     0.03855
  328        311     0.03002
  329        312     0.03849
  330        352     0.02891
  331        327     0.02950
  332        348     0.03883
  333        303     0.02842
  334        362     0.03746
  335        300     0.03059
  336        338     0.03751
  337        315     0.03809
  338        337     0.03732
  339        345     0.03592
  340        348     0.04070
  341        359     0.03214
  342        346     0.03697
  343        360     0.03680
  344        332     0.03223
  345        345     0.03182
  346        321     0.03984
  347        335     0.03643
  348        326     0.03577
  349        356     0.03621
  350        325     0.02725
  351        338     0.03037
  352        314     0.02877
  353        336     0.02768
  354        338     0.03581
  355        306     0.02944
  356        339     0.02745
  357        303     0.03487
  358        306     0.03823
  359        313     0.03627
  360        308     0.03099
  361        285     0.02629
  362        312     0.03379
  363        328     0.03233
  364        282     0.02897
  365        296     0.03881
  366        269     0.03104
  367        256     0.02789
  368        294     0.02685
  369        255     0.02871
  370        271     0.02628
  371        224     0.02289
  372        198     0.02485
  373        205     0.02603
  374        201     0.03041
  375        202     0.02456
  376        189     0.02687
  377        142     0.01845
  378        158     0.02513
  379        126     0.02333
  380        122     0.01966
  381        103     0.01425
  382         90     0.01703
  383         84     0.01750
  384         84     0.01946
  385         78     0.01872
  386         82     0.01328
  387         66     0.02000
  388         79     0.01770
  389         82     0.02513
  390         71     0.02365
  391         71     0.02118
  392         65     0.01603
  393         50     0.01576
  394         52     0.01228
  395         48     0.01229
  396         53     0.01396
  397         58     0.01276
  398         50     0.02007
  399         44     0.01624
  400         50     0.02428
  401         36     0.01182
  402         55     0.01800
  403         41     0.02276
  404         46     0.01200
  405         32     0.01700
  406         31     0.00994
  407         37     0.01320
  408         29     0.01013
  409         34     0.01654
  410         38     0.01208
  411         42     0.01426
  412         35     0.01311
  413         29     0.00954
  414         26     0.00941
  415         26     0.01371
  416         37     0.01459
  417         26     0.01320
  418         27     0.01230
  419         24     0.00954
  420         21     0.01189
  421         20     0.00860
  422         26     0.01521
  423         23     0.01830
  424         22     0.01094
  425         22     0.01096
  426         30     0.01006
  427         22     0.00944
  428         16     0.00930
  429         21     0.01334
  430         21     0.00868
  431         16     0.00797
  432         22     0.00896
  433         21     0.00945
  434         16     0.00806
  435         23     0.00899
  436         17     0.00774
  437         17     0.01245
  438         23     0.01193
  439         20     0.01085
  440         22     0.00849
  441         23     0.01480
  442         20     0.01177
  443         13     0.00738
  444         27     0.00928
  445         23     0.01348
  446         16     0.00808
  447         15     0.00815
  448         18     0.01430
  449         13     0.01536
  450         20     0.00830
  451         17     0.01055
  452         15     0.00839
  453         21     0.00864
  454         10     0.00737
  455         15     0.01170
  456         20     0.01189
  457         18     0.00828
  458         18     0.00826
  459         11     0.01020
  460         19     0.01563
  461         12     0.00834
  462         14     0.00787
  463         14     0.01212
  464          9     0.00723
  465         10     0.00723
  466          9     0.00719
  467          8     0.00717
  468         18     0.00877
  469         11     0.00754
  470         10     0.01226
  471         15     0.00839
  472         10     0.00862
  473         11     0.01521
  474         15     0.01086
  475         12     0.00922
  476         10     0.01455
  477         11     0.01280
  478         13     0.00903
  479          5     0.00967
  480         13     0.00700
  481         10     0.00730
  482          9     0.00739
  483          9     0.01113
  484         16     0.01210
  485         10     0.01030
  486          9     0.00940
  487         10     0.01248
  488          8     0.00660
  489         15     0.01359
  490         14     0.01602
  491         12     0.00783
  492          9     0.00747
  493         10     0.00965
  494          5     0.00672
  495         12     0.00971
  496          8     0.00737
  497          8     0.00883
  498          9     0.00732
  499          8     0.00741
  500          9     0.01035
  501          6     0.01438
  502          6     0.00967
  503          5     0.00848
  504          7     0.00688
  505          8     0.00744
  506          8     0.00754
  507         13     0.01141
  508          4     0.00680
  509         15     0.00841
  510         16     0.00813
  511         13     0.00802
  512          8     0.00768
  513         13     0.00826
  514          9     0.00849
  515          4     0.00619
  516          6     0.00784
  517          7     0.00721
  518          1     0.00599
  519          6     0.00965
  520          7     0.00966
  521          3     0.00621
  522          9     0.00843
  523          6     0.00631
  524          6     0.00626
  525          7     0.00683
  526          6     0.01184
  527          6     0.00628
  528          4     0.00782
  529          9     0.00741
  530          5     0.00636
  531          6     0.00685
  532          6     0.01002
  533          5     0.01092
  534          6     0.00791
  535          4     0.00648
  536          7     0.00666
  537          8     0.00667
  538          6     0.01039
  539          3     0.00579
  540          9     0.01572
  541         15     0.00819
  542         10     0.00745
  543          7     0.00648
  544          5     0.00649
  545          5     0.00641
  546          5     0.00630
  548          6     0.00970
  549          5     0.00645
  550         15     0.01158
  551          3     0.00934
  552          2     0.00984
  553          7     0.00974
  554          3     0.00732
  555          2     0.00976
  556          6     0.00671
  557          3     0.00951
  558          4     0.00658
  559          4     0.01176
  560          4     0.00642
  561          7     0.00836
  562          2     0.00618
  563          2     0.00597
  564          4     0.00647
  565          3     0.00640
  566          4     0.00672
  567          7     0.01429
  568          1     0.00627
  569          6     0.00690
  570          5     0.00654
  571          1     0.00628
  572          3     0.00601
  573          3     0.00627
  574          6     0.00641
  575          5     0.00616
  576          1     0.00576
  577          5     0.00624
  578          6     0.01292
  579          2     0.00555
  580          4     0.00569
  581          3     0.00556
  582          3     0.00583
  583          2     0.00547
  584          5     0.00616
  585          2     0.00539
  586          2     0.00539
  587          4     0.00709
  588          5     0.01339
  589          1     0.00590
  590          7     0.00726
  591          3     0.00602
  592          2     0.00593
  593          2     0.00566
  594          3     0.00553
  595          1     0.00571
  596          2     0.00581
  597          1     0.00559
  598          3     0.00569
  599          1     0.00582
  600          4     0.00617
  601          4     0.00604
  602          2     0.00583
  603          4     0.00956
  604          2     0.00930
  605          3     0.01002
  606          3     0.00593
  607          2     0.00595
  608          3     0.00587
  609          2     0.00743
  610          1     0.00633
  611          2     0.00635
  612          2     0.00565
  613          2     0.00613
  614          3     0.00671
  615          1     0.00598
  617          2     0.00649
  618          5     0.01083
  620          4     0.00647
  621          1     0.00632
  623          2     0.00608
  624          2     0.00632
  625          2     0.00602
  626          1     0.00598
  627          3     0.00581
  628          1     0.00563
  629          2     0.00611
  632          1     0.00592
  633          1     0.00580
  636          1     0.00614
  637          1     0.00699
  640          1     0.00605
  641          2     0.00589
  643          1     0.00598
  644          2     0.00598
  647          3     0.00576
  650          2     0.00562
  651          1     0.00653
  656          1     0.00573
  657          2     0.00585
  658          1     0.00600
  660          1     0.00533
  662          1     0.00559
  663          1     0.00534
  664          2     0.00575
  665          1     0.00986
  666          1     0.00587
  667          2     0.00579
  670          2     0.00575
  674          3     0.00577
  677          2     0.00573
  678          2     0.00597
  679          1     0.00586
  681          1     0.00596
  682          1     0.00966
  683          2     0.00553
  685          1     0.00580
  686          1     0.00558
  688          1     0.00576
  689          1     0.00590
  694          1     0.00556
  696          1     0.00613
  698          1     0.00594
  699          2     0.00607
  702          1     0.00600
  704          1     0.00995
  709          1     0.00583
  710          1     0.00610
  716          1     0.00598
  722          1     0.00543
  724          1     0.00587
  726          1     0.00583
  730          1     0.00531
  732          1     0.00533
  735          2     0.00549
  736          1     0.00905
  737          1     0.00572
  740          1     0.00534
  746          1     0.00555
  752          1     0.00542
  758          2     0.00539
  759          1     0.00571
  763          1     0.00910
  768          1     0.00601
  771          1     0.00601
  784          1     0.00572
  790          1     0.00560
  794          1     0.00546
  796          1     0.00564
  803          1     0.00515
  806          1     0.00564
  810          1     0.00606
  835          2     0.00685
  901          1     0.00628
  921          1     0.00609
  966          1     0.00543
took 594 iterations
Trial Time:          0.06021
Average Time:        0.06056
Exiting @ tick 2197613327000 because exiting with last active thread context
