
---------- Begin Simulation Statistics ----------
final_tick                               487804300500                       # Number of ticks from beginning of simulation (restored from checkpoints and never reset)
host_inst_rate                                 100831                       # Simulator instruction rate (inst/s)
host_mem_usage                                 739332                       # Number of bytes of host memory used
host_op_rate                                   101166                       # Simulator op (including micro ops) rate (op/s)
host_seconds                                  6083.42                       # Real time elapsed on the host
host_tick_rate                               80185829                       # Simulator tick rate (ticks/s)
sim_freq                                 1000000000000                       # Frequency of simulated ticks
sim_insts                                   613398619                       # Number of instructions simulated
sim_ops                                     615437377                       # Number of ops (including micro ops) simulated
sim_seconds                                  0.487804                       # Number of seconds simulated
sim_ticks                                487804300500                       # Number of ticks simulated
system.cpu0.branchPred.BTBCorrect                   0                       # Number of correct BTB predictions (this stat may not work properly.
system.cpu0.branchPred.BTBHitPct            85.965083                       # BTB Hit Percentage
system.cpu0.branchPred.BTBHits               76016341                       # Number of BTB hits
system.cpu0.branchPred.BTBLookups            88426997                       # Number of BTB lookups
system.cpu0.branchPred.RASInCorrect                 0                       # Number of incorrect RAS predictions.
system.cpu0.branchPred.condIncorrect          6417052                       # Number of conditional branches incorrect
system.cpu0.branchPred.condPredicted        119483671                       # Number of conditional branches predicted
system.cpu0.branchPred.indirectHits          11641795                       # Number of indirect target hits.
system.cpu0.branchPred.indirectLookups       11746135                       # Number of indirect predictor lookups.
system.cpu0.branchPred.indirectMisses          104340                       # Number of indirect misses.
system.cpu0.branchPred.lookups              154940937                       # Number of BP lookups
system.cpu0.branchPred.usedRAS                      0                       # Number of times the RAS was used to get a target.
system.cpu0.branchPredindirectMispredicted      1052192                       # Number of mispredicted indirect branches.
system.cpu0.commit.amos                        509398                       # Number of atomic instructions committed
system.cpu0.commit.branchMispredicts          4549393                       # The number of times a branch was mispredicted
system.cpu0.commit.branches                 138963836                       # Number of branches committed
system.cpu0.commit.bw_lim_events             17196655                       # number cycles where commit BW limit reached
system.cpu0.commit.commitNonSpecStalls        1532351                       # The number of times commit has been forced to stall to communicate backwards
system.cpu0.commit.commitSquashedInsts       53096250                       # The number of squashed insts skipped by commit
system.cpu0.commit.committedInsts           561789271                       # Number of instructions committed
system.cpu0.commit.committedOps             562299934                       # Number of ops (including micro ops) committed
system.cpu0.commit.committed_per_cycle::samples    881944559                       # Number of insts commited each cycle
system.cpu0.commit.committed_per_cycle::mean     0.637568                       # Number of insts commited each cycle
system.cpu0.commit.committed_per_cycle::stdev     1.430599                       # Number of insts commited each cycle
system.cpu0.commit.committed_per_cycle::underflows            0      0.00%      0.00% # Number of insts commited each cycle
system.cpu0.commit.committed_per_cycle::0    617121570     69.97%     69.97% # Number of insts commited each cycle
system.cpu0.commit.committed_per_cycle::1    158399804     17.96%     87.93% # Number of insts commited each cycle
system.cpu0.commit.committed_per_cycle::2     34419453      3.90%     91.84% # Number of insts commited each cycle
system.cpu0.commit.committed_per_cycle::3     34948922      3.96%     95.80% # Number of insts commited each cycle
system.cpu0.commit.committed_per_cycle::4     12223419      1.39%     97.18% # Number of insts commited each cycle
system.cpu0.commit.committed_per_cycle::5      4333045      0.49%     97.68% # Number of insts commited each cycle
system.cpu0.commit.committed_per_cycle::6      1029520      0.12%     97.79% # Number of insts commited each cycle
system.cpu0.commit.committed_per_cycle::7      2272171      0.26%     98.05% # Number of insts commited each cycle
system.cpu0.commit.committed_per_cycle::8     17196655      1.95%    100.00% # Number of insts commited each cycle
system.cpu0.commit.committed_per_cycle::overflows            0      0.00%    100.00% # Number of insts commited each cycle
system.cpu0.commit.committed_per_cycle::min_value            0                       # Number of insts commited each cycle
system.cpu0.commit.committed_per_cycle::max_value            8                       # Number of insts commited each cycle
system.cpu0.commit.committed_per_cycle::total    881944559                       # Number of insts commited each cycle
system.cpu0.commit.fp_insts                        50                       # Number of committed floating point instructions.
system.cpu0.commit.function_calls            11671930                       # Number of function calls committed.
system.cpu0.commit.int_insts                543440497                       # Number of committed integer instructions.
system.cpu0.commit.loads                    174758549                       # Number of loads committed
system.cpu0.commit.membars                    1019944                       # Number of memory barriers committed
system.cpu0.commit.op_class_0::No_OpClass      1019950      0.18%      0.18% # Class of committed instruction
system.cpu0.commit.op_class_0::IntAlu       311039930     55.32%     55.50% # Class of committed instruction
system.cpu0.commit.op_class_0::IntMult        4137156      0.74%     56.23% # Class of committed instruction
system.cpu0.commit.op_class_0::IntDiv         1017773      0.18%     56.41% # Class of committed instruction
system.cpu0.commit.op_class_0::FloatAdd             0      0.00%     56.41% # Class of committed instruction
system.cpu0.commit.op_class_0::FloatCmp             4      0.00%     56.41% # Class of committed instruction
system.cpu0.commit.op_class_0::FloatCvt            12      0.00%     56.41% # Class of committed instruction
system.cpu0.commit.op_class_0::FloatMult            0      0.00%     56.41% # Class of committed instruction
system.cpu0.commit.op_class_0::FloatMultAcc            0      0.00%     56.41% # Class of committed instruction
system.cpu0.commit.op_class_0::FloatDiv             2      0.00%     56.41% # Class of committed instruction
system.cpu0.commit.op_class_0::FloatMisc            4      0.00%     56.41% # Class of committed instruction
system.cpu0.commit.op_class_0::FloatSqrt            0      0.00%     56.41% # Class of committed instruction
system.cpu0.commit.op_class_0::SimdAdd              0      0.00%     56.41% # Class of committed instruction
system.cpu0.commit.op_class_0::SimdAddAcc            0      0.00%     56.41% # Class of committed instruction
system.cpu0.commit.op_class_0::SimdAlu              0      0.00%     56.41% # Class of committed instruction
system.cpu0.commit.op_class_0::SimdCmp              0      0.00%     56.41% # Class of committed instruction
system.cpu0.commit.op_class_0::SimdCvt              0      0.00%     56.41% # Class of committed instruction
system.cpu0.commit.op_class_0::SimdMisc             0      0.00%     56.41% # Class of committed instruction
system.cpu0.commit.op_class_0::SimdMult             0      0.00%     56.41% # Class of committed instruction
system.cpu0.commit.op_class_0::SimdMultAcc            0      0.00%     56.41% # Class of committed instruction
system.cpu0.commit.op_class_0::SimdShift            0      0.00%     56.41% # Class of committed instruction
system.cpu0.commit.op_class_0::SimdShiftAcc            0      0.00%     56.41% # Class of committed instruction
system.cpu0.commit.op_class_0::SimdDiv              0      0.00%     56.41% # Class of committed instruction
system.cpu0.commit.op_class_0::SimdSqrt             0      0.00%     56.41% # Class of committed instruction
system.cpu0.commit.op_class_0::SimdFloatAdd            0      0.00%     56.41% # Class of committed instruction
system.cpu0.commit.op_class_0::SimdFloatAlu            0      0.00%     56.41% # Class of committed instruction
system.cpu0.commit.op_class_0::SimdFloatCmp            0      0.00%     56.41% # Class of committed instruction
system.cpu0.commit.op_class_0::SimdFloatCvt            0      0.00%     56.41% # Class of committed instruction
system.cpu0.commit.op_class_0::SimdFloatDiv            0      0.00%     56.41% # Class of committed instruction
system.cpu0.commit.op_class_0::SimdFloatMisc            0      0.00%     56.41% # Class of committed instruction
system.cpu0.commit.op_class_0::SimdFloatMult            0      0.00%     56.41% # Class of committed instruction
system.cpu0.commit.op_class_0::SimdFloatMultAcc            0      0.00%     56.41% # Class of committed instruction
system.cpu0.commit.op_class_0::SimdFloatSqrt            0      0.00%     56.41% # Class of committed instruction
system.cpu0.commit.op_class_0::SimdReduceAdd            0      0.00%     56.41% # Class of committed instruction
system.cpu0.commit.op_class_0::SimdReduceAlu            0      0.00%     56.41% # Class of committed instruction
system.cpu0.commit.op_class_0::SimdReduceCmp            0      0.00%     56.41% # Class of committed instruction
system.cpu0.commit.op_class_0::SimdFloatReduceAdd            0      0.00%     56.41% # Class of committed instruction
system.cpu0.commit.op_class_0::SimdFloatReduceCmp            0      0.00%     56.41% # Class of committed instruction
system.cpu0.commit.op_class_0::SimdAes              0      0.00%     56.41% # Class of committed instruction
system.cpu0.commit.op_class_0::SimdAesMix            0      0.00%     56.41% # Class of committed instruction
system.cpu0.commit.op_class_0::SimdSha1Hash            0      0.00%     56.41% # Class of committed instruction
system.cpu0.commit.op_class_0::SimdSha1Hash2            0      0.00%     56.41% # Class of committed instruction
system.cpu0.commit.op_class_0::SimdSha256Hash            0      0.00%     56.41% # Class of committed instruction
system.cpu0.commit.op_class_0::SimdSha256Hash2            0      0.00%     56.41% # Class of committed instruction
system.cpu0.commit.op_class_0::SimdShaSigma2            0      0.00%     56.41% # Class of committed instruction
system.cpu0.commit.op_class_0::SimdShaSigma3            0      0.00%     56.41% # Class of committed instruction
system.cpu0.commit.op_class_0::SimdPredAlu            0      0.00%     56.41% # Class of committed instruction
system.cpu0.commit.op_class_0::MemRead      175267939     31.17%     87.58% # Class of committed instruction
system.cpu0.commit.op_class_0::MemWrite      69817136     12.42%    100.00% # Class of committed instruction
system.cpu0.commit.op_class_0::FloatMemRead            8      0.00%    100.00% # Class of committed instruction
system.cpu0.commit.op_class_0::FloatMemWrite           20      0.00%    100.00% # Class of committed instruction
system.cpu0.commit.op_class_0::IprAccess            0      0.00%    100.00% # Class of committed instruction
system.cpu0.commit.op_class_0::InstPrefetch            0      0.00%    100.00% # Class of committed instruction
system.cpu0.commit.op_class_0::total        562299934                       # Class of committed instruction
system.cpu0.commit.refs                     245085103                       # Number of memory references committed
system.cpu0.commit.swp_count                        0                       # Number of s/w prefetches committed
system.cpu0.commit.vec_insts                        0                       # Number of committed Vector instructions.
system.cpu0.committedInsts                  561789271                       # Number of Instructions Simulated
system.cpu0.committedOps                    562299934                       # Number of Ops (including micro ops) Simulated
system.cpu0.cpi                              1.712710                       # CPI: Cycles Per Instruction
system.cpu0.cpi_total                        1.712710                       # CPI: Total CPI of All Threads
system.cpu0.decode.BlockedCycles            108310177                       # Number of cycles decode is blocked
system.cpu0.decode.BranchMispred              1872227                       # Number of times decode detected a branch misprediction
system.cpu0.decode.BranchResolved            74461242                       # Number of times decode resolved a branch
system.cpu0.decode.DecodedInsts             626317947                       # Number of instructions handled by decode
system.cpu0.decode.IdleCycles               343096610                       # Number of cycles decode is idle
system.cpu0.decode.RunCycles                433032172                       # Number of cycles decode is running
system.cpu0.decode.SquashCycles               4554364                       # Number of cycles decode is squashing
system.cpu0.decode.SquashedInsts              8465251                       # Number of squashed instructions handled by decode
system.cpu0.decode.UnblockCycles              2396053                       # Number of cycles decode is unblocking
system.cpu0.dtb.accesses                            0                       # DTB accesses
system.cpu0.dtb.hits                                0                       # DTB hits
system.cpu0.dtb.misses                              0                       # DTB misses
system.cpu0.dtb.read_accesses                       0                       # DTB read accesses
system.cpu0.dtb.read_hits                           0                       # DTB read hits
system.cpu0.dtb.read_misses                         0                       # DTB read misses
system.cpu0.dtb.write_accesses                      0                       # DTB write accesses
system.cpu0.dtb.write_hits                          0                       # DTB write hits
system.cpu0.dtb.write_misses                        0                       # DTB write misses
system.cpu0.fetch.Branches                  154940937                       # Number of branches that fetch encountered
system.cpu0.fetch.CacheLines                 99978485                       # Number of cache lines fetched
system.cpu0.fetch.Cycles                    549373009                       # Number of cycles fetch has run and was not squashing or blocked
system.cpu0.fetch.IcacheSquashes              2338049                       # Number of outstanding Icache misses that were squashed
system.cpu0.fetch.IcacheWaitRetryStallCycles          144                       # Number of stall cycles due to full MSHR
system.cpu0.fetch.Insts                     643597329                       # Number of instructions fetch has processed
system.cpu0.fetch.MiscStallCycles                  33                       # Number of cycles fetch has spent waiting on interrupts, or bad addresses, or out of MSHRs
system.cpu0.fetch.PendingTrapStallCycles          128                       # Number of stall cycles due to pending traps
system.cpu0.fetch.SquashCycles               12844086                       # Number of cycles fetch has spent squashing
system.cpu0.fetch.branchRate                 0.161031                       # Number of branch fetches per cycle
system.cpu0.fetch.icacheStallCycles         335594019                       # Number of cycles fetch is stalled on an Icache miss
system.cpu0.fetch.predictedBranches          87658136                       # Number of branches that fetch has predicted taken
system.cpu0.fetch.rate                       0.668893                       # Number of inst fetches per cycle
system.cpu0.fetch.rateDist::samples         891389376                       # Number of instructions fetched each cycle (Total)
system.cpu0.fetch.rateDist::mean             0.722589                       # Number of instructions fetched each cycle (Total)
system.cpu0.fetch.rateDist::stdev            0.937248                       # Number of instructions fetched each cycle (Total)
system.cpu0.fetch.rateDist::underflows              0      0.00%      0.00% # Number of instructions fetched each cycle (Total)
system.cpu0.fetch.rateDist::0               441451988     49.52%     49.52% # Number of instructions fetched each cycle (Total)
system.cpu0.fetch.rateDist::1               332092098     37.26%     86.78% # Number of instructions fetched each cycle (Total)
system.cpu0.fetch.rateDist::2                60951019      6.84%     93.62% # Number of instructions fetched each cycle (Total)
system.cpu0.fetch.rateDist::3                43480976      4.88%     98.50% # Number of instructions fetched each cycle (Total)
system.cpu0.fetch.rateDist::4                10557304      1.18%     99.68% # Number of instructions fetched each cycle (Total)
system.cpu0.fetch.rateDist::5                 1735844      0.19%     99.87% # Number of instructions fetched each cycle (Total)
system.cpu0.fetch.rateDist::6                   98866      0.01%     99.89% # Number of instructions fetched each cycle (Total)
system.cpu0.fetch.rateDist::7                     465      0.00%     99.89% # Number of instructions fetched each cycle (Total)
system.cpu0.fetch.rateDist::8                 1020816      0.11%    100.00% # Number of instructions fetched each cycle (Total)
system.cpu0.fetch.rateDist::overflows               0      0.00%    100.00% # Number of instructions fetched each cycle (Total)
system.cpu0.fetch.rateDist::min_value               0                       # Number of instructions fetched each cycle (Total)
system.cpu0.fetch.rateDist::max_value               8                       # Number of instructions fetched each cycle (Total)
system.cpu0.fetch.rateDist::total           891389376                       # Number of instructions fetched each cycle (Total)
system.cpu0.fp_regfile_reads                       44                       # number of floating regfile reads
system.cpu0.fp_regfile_writes                      25                       # number of floating regfile writes
system.cpu0.idleCycles                       70792861                       # Total number of cycles that the CPU has spent unscheduled due to idling
system.cpu0.iew.branchMispredicts             4655538                       # Number of branch mispredicts detected at execute
system.cpu0.iew.exec_branches               146231272                       # Number of branches executed
system.cpu0.iew.exec_nop                            0                       # number of nop insts executed
system.cpu0.iew.exec_rate                    0.634350                       # Inst execution rate
system.cpu0.iew.exec_refs                   274643559                       # number of memory reference insts executed
system.cpu0.iew.exec_stores                  77207043                       # Number of stores executed
system.cpu0.iew.exec_swp                            0                       # number of swp insts executed
system.cpu0.iew.iewBlockCycles               89139244                       # Number of cycles IEW is blocking
system.cpu0.iew.iewDispLoadInsts            197113122                       # Number of dispatched load instructions
system.cpu0.iew.iewDispNonSpecInsts            512667                       # Number of dispatched non-speculative instructions
system.cpu0.iew.iewDispSquashedInsts          2267480                       # Number of squashed instructions skipped by dispatch
system.cpu0.iew.iewDispStoreInsts            78181917                       # Number of dispatched store instructions
system.cpu0.iew.iewDispatchedInsts          615383766                       # Number of instructions dispatched to IQ
system.cpu0.iew.iewExecLoadInsts            197436516                       # Number of load instructions executed
system.cpu0.iew.iewExecSquashedInsts          3872633                       # Number of squashed instructions skipped in execute
system.cpu0.iew.iewExecutedInsts            610360560                       # Number of executed instructions
system.cpu0.iew.iewIQFullEvents                465016                       # Number of times the IQ has become full, causing a stall
system.cpu0.iew.iewIdleCycles                       0                       # Number of cycles IEW is idle
system.cpu0.iew.iewLSQFullEvents              1715871                       # Number of times the LSQ has become full, causing a stall
system.cpu0.iew.iewSquashCycles               4554364                       # Number of cycles IEW is squashing
system.cpu0.iew.iewUnblockCycles              2729375                       # Number of cycles IEW is unblocking
system.cpu0.iew.lsq.thread0.blockedLoads            0                       # Number of blocked loads due to partial load-store forwarding
system.cpu0.iew.lsq.thread0.cacheBlocked        70476                       # Number of times an access to memory failed due to the cache being blocked
system.cpu0.iew.lsq.thread0.forwLoads         9187771                       # Number of loads that had data forwarded from stores
system.cpu0.iew.lsq.thread0.ignoredResponses        29075                       # Number of memory responses ignored because the instruction is squashed
system.cpu0.iew.lsq.thread0.invAddrLoads            0                       # Number of loads ignored due to an invalid address
system.cpu0.iew.lsq.thread0.invAddrSwpfs            0                       # Number of software prefetches ignored due to an invalid address
system.cpu0.iew.lsq.thread0.memOrderViolation         5069                       # Number of memory ordering violations
system.cpu0.iew.lsq.thread0.rescheduledLoads      3525273                       # Number of loads that were rescheduled
system.cpu0.iew.lsq.thread0.squashedLoads     22354573                       # Number of loads squashed
system.cpu0.iew.lsq.thread0.squashedStores      7855363                       # Number of stores squashed
system.cpu0.iew.memOrderViolationEvents          5069                       # Number of memory order violations
system.cpu0.iew.predictedNotTakenIncorrect       819774                       # Number of branches that were predicted not taken incorrectly
system.cpu0.iew.predictedTakenIncorrect       3835764                       # Number of branches that were predicted taken incorrectly
system.cpu0.iew.wb_consumers                270848301                       # num instructions consuming a value
system.cpu0.iew.wb_count                    603917390                       # cumulative count of insts written-back
system.cpu0.iew.wb_fanout                    0.838310                       # average fanout of values written-back
system.cpu0.iew.wb_producers                227054971                       # num instructions producing a value
system.cpu0.iew.wb_rate                      0.627654                       # insts written-back per cycle
system.cpu0.iew.wb_sent                     604040472                       # cumulative count of insts sent to commit
system.cpu0.int_regfile_reads               742839745                       # number of integer regfile reads
system.cpu0.int_regfile_writes              386177983                       # number of integer regfile writes
system.cpu0.ipc                              0.583870                       # IPC: Instructions Per Cycle
system.cpu0.ipc_total                        0.583870                       # IPC: Total IPC of All Threads
system.cpu0.iq.FU_type_0::No_OpClass          1020973      0.17%      0.17% # Type of FU issued
system.cpu0.iq.FU_type_0::IntAlu            331679305     54.00%     54.17% # Type of FU issued
system.cpu0.iq.FU_type_0::IntMult             4213213      0.69%     54.85% # Type of FU issued
system.cpu0.iq.FU_type_0::IntDiv              1018062      0.17%     55.02% # Type of FU issued
system.cpu0.iq.FU_type_0::FloatAdd                  0      0.00%     55.02% # Type of FU issued
system.cpu0.iq.FU_type_0::FloatCmp                  4      0.00%     55.02% # Type of FU issued
system.cpu0.iq.FU_type_0::FloatCvt                 12      0.00%     55.02% # Type of FU issued
system.cpu0.iq.FU_type_0::FloatMult                 0      0.00%     55.02% # Type of FU issued
system.cpu0.iq.FU_type_0::FloatMultAcc              0      0.00%     55.02% # Type of FU issued
system.cpu0.iq.FU_type_0::FloatDiv                  2      0.00%     55.02% # Type of FU issued
system.cpu0.iq.FU_type_0::FloatMisc                 4      0.00%     55.02% # Type of FU issued
system.cpu0.iq.FU_type_0::FloatSqrt                 0      0.00%     55.02% # Type of FU issued
system.cpu0.iq.FU_type_0::SimdAdd                   0      0.00%     55.02% # Type of FU issued
system.cpu0.iq.FU_type_0::SimdAddAcc                0      0.00%     55.02% # Type of FU issued
system.cpu0.iq.FU_type_0::SimdAlu                   0      0.00%     55.02% # Type of FU issued
system.cpu0.iq.FU_type_0::SimdCmp                   0      0.00%     55.02% # Type of FU issued
system.cpu0.iq.FU_type_0::SimdCvt                   0      0.00%     55.02% # Type of FU issued
system.cpu0.iq.FU_type_0::SimdMisc                  0      0.00%     55.02% # Type of FU issued
system.cpu0.iq.FU_type_0::SimdMult                  0      0.00%     55.02% # Type of FU issued
system.cpu0.iq.FU_type_0::SimdMultAcc               0      0.00%     55.02% # Type of FU issued
system.cpu0.iq.FU_type_0::SimdShift                 0      0.00%     55.02% # Type of FU issued
system.cpu0.iq.FU_type_0::SimdShiftAcc              0      0.00%     55.02% # Type of FU issued
system.cpu0.iq.FU_type_0::SimdDiv                   0      0.00%     55.02% # Type of FU issued
system.cpu0.iq.FU_type_0::SimdSqrt                  0      0.00%     55.02% # Type of FU issued
system.cpu0.iq.FU_type_0::SimdFloatAdd              0      0.00%     55.02% # Type of FU issued
system.cpu0.iq.FU_type_0::SimdFloatAlu              0      0.00%     55.02% # Type of FU issued
system.cpu0.iq.FU_type_0::SimdFloatCmp              0      0.00%     55.02% # Type of FU issued
system.cpu0.iq.FU_type_0::SimdFloatCvt              0      0.00%     55.02% # Type of FU issued
system.cpu0.iq.FU_type_0::SimdFloatDiv              0      0.00%     55.02% # Type of FU issued
system.cpu0.iq.FU_type_0::SimdFloatMisc             0      0.00%     55.02% # Type of FU issued
system.cpu0.iq.FU_type_0::SimdFloatMult             0      0.00%     55.02% # Type of FU issued
system.cpu0.iq.FU_type_0::SimdFloatMultAcc            0      0.00%     55.02% # Type of FU issued
system.cpu0.iq.FU_type_0::SimdFloatSqrt             0      0.00%     55.02% # Type of FU issued
system.cpu0.iq.FU_type_0::SimdReduceAdd             0      0.00%     55.02% # Type of FU issued
system.cpu0.iq.FU_type_0::SimdReduceAlu             0      0.00%     55.02% # Type of FU issued
system.cpu0.iq.FU_type_0::SimdReduceCmp             0      0.00%     55.02% # Type of FU issued
system.cpu0.iq.FU_type_0::SimdFloatReduceAdd            0      0.00%     55.02% # Type of FU issued
system.cpu0.iq.FU_type_0::SimdFloatReduceCmp            0      0.00%     55.02% # Type of FU issued
system.cpu0.iq.FU_type_0::SimdAes                   0      0.00%     55.02% # Type of FU issued
system.cpu0.iq.FU_type_0::SimdAesMix                0      0.00%     55.02% # Type of FU issued
system.cpu0.iq.FU_type_0::SimdSha1Hash              0      0.00%     55.02% # Type of FU issued
system.cpu0.iq.FU_type_0::SimdSha1Hash2             0      0.00%     55.02% # Type of FU issued
system.cpu0.iq.FU_type_0::SimdSha256Hash            0      0.00%     55.02% # Type of FU issued
system.cpu0.iq.FU_type_0::SimdSha256Hash2            0      0.00%     55.02% # Type of FU issued
system.cpu0.iq.FU_type_0::SimdShaSigma2             0      0.00%     55.02% # Type of FU issued
system.cpu0.iq.FU_type_0::SimdShaSigma3             0      0.00%     55.02% # Type of FU issued
system.cpu0.iq.FU_type_0::SimdPredAlu               0      0.00%     55.02% # Type of FU issued
system.cpu0.iq.FU_type_0::MemRead           199234304     32.44%     87.45% # Type of FU issued
system.cpu0.iq.FU_type_0::MemWrite           77067278     12.55%    100.00% # Type of FU issued
system.cpu0.iq.FU_type_0::FloatMemRead             16      0.00%    100.00% # Type of FU issued
system.cpu0.iq.FU_type_0::FloatMemWrite            20      0.00%    100.00% # Type of FU issued
system.cpu0.iq.FU_type_0::IprAccess                 0      0.00%    100.00% # Type of FU issued
system.cpu0.iq.FU_type_0::InstPrefetch              0      0.00%    100.00% # Type of FU issued
system.cpu0.iq.FU_type_0::total             614233193                       # Type of FU issued
system.cpu0.iq.fp_alu_accesses                     62                       # Number of floating point alu accesses
system.cpu0.iq.fp_inst_queue_reads                120                       # Number of floating instruction queue reads
system.cpu0.iq.fp_inst_queue_wakeup_accesses           53                       # Number of floating instruction queue wakeup accesses
system.cpu0.iq.fp_inst_queue_writes                74                       # Number of floating instruction queue writes
system.cpu0.iq.fu_busy_cnt                     701632                       # FU busy when requested
system.cpu0.iq.fu_busy_rate                  0.001142                       # FU busy rate (busy events/executed inst)
system.cpu0.iq.fu_full::No_OpClass                  0      0.00%      0.00% # attempts to use FU when none available
system.cpu0.iq.fu_full::IntAlu                 122799     17.50%     17.50% # attempts to use FU when none available
system.cpu0.iq.fu_full::IntMult                     8      0.00%     17.50% # attempts to use FU when none available
system.cpu0.iq.fu_full::IntDiv                      0      0.00%     17.50% # attempts to use FU when none available
system.cpu0.iq.fu_full::FloatAdd                    0      0.00%     17.50% # attempts to use FU when none available
system.cpu0.iq.fu_full::FloatCmp                    0      0.00%     17.50% # attempts to use FU when none available
system.cpu0.iq.fu_full::FloatCvt                    0      0.00%     17.50% # attempts to use FU when none available
system.cpu0.iq.fu_full::FloatMult                   0      0.00%     17.50% # attempts to use FU when none available
system.cpu0.iq.fu_full::FloatMultAcc                0      0.00%     17.50% # attempts to use FU when none available
system.cpu0.iq.fu_full::FloatDiv                    0      0.00%     17.50% # attempts to use FU when none available
system.cpu0.iq.fu_full::FloatMisc                   0      0.00%     17.50% # attempts to use FU when none available
system.cpu0.iq.fu_full::FloatSqrt                   0      0.00%     17.50% # attempts to use FU when none available
system.cpu0.iq.fu_full::SimdAdd                     0      0.00%     17.50% # attempts to use FU when none available
system.cpu0.iq.fu_full::SimdAddAcc                  0      0.00%     17.50% # attempts to use FU when none available
system.cpu0.iq.fu_full::SimdAlu                     0      0.00%     17.50% # attempts to use FU when none available
system.cpu0.iq.fu_full::SimdCmp                     0      0.00%     17.50% # attempts to use FU when none available
system.cpu0.iq.fu_full::SimdCvt                     0      0.00%     17.50% # attempts to use FU when none available
system.cpu0.iq.fu_full::SimdMisc                    0      0.00%     17.50% # attempts to use FU when none available
system.cpu0.iq.fu_full::SimdMult                    0      0.00%     17.50% # attempts to use FU when none available
system.cpu0.iq.fu_full::SimdMultAcc                 0      0.00%     17.50% # attempts to use FU when none available
system.cpu0.iq.fu_full::SimdShift                   0      0.00%     17.50% # attempts to use FU when none available
system.cpu0.iq.fu_full::SimdShiftAcc                0      0.00%     17.50% # attempts to use FU when none available
system.cpu0.iq.fu_full::SimdDiv                     0      0.00%     17.50% # attempts to use FU when none available
system.cpu0.iq.fu_full::SimdSqrt                    0      0.00%     17.50% # attempts to use FU when none available
system.cpu0.iq.fu_full::SimdFloatAdd                0      0.00%     17.50% # attempts to use FU when none available
system.cpu0.iq.fu_full::SimdFloatAlu                0      0.00%     17.50% # attempts to use FU when none available
system.cpu0.iq.fu_full::SimdFloatCmp                0      0.00%     17.50% # attempts to use FU when none available
system.cpu0.iq.fu_full::SimdFloatCvt                0      0.00%     17.50% # attempts to use FU when none available
system.cpu0.iq.fu_full::SimdFloatDiv                0      0.00%     17.50% # attempts to use FU when none available
system.cpu0.iq.fu_full::SimdFloatMisc               0      0.00%     17.50% # attempts to use FU when none available
system.cpu0.iq.fu_full::SimdFloatMult               0      0.00%     17.50% # attempts to use FU when none available
system.cpu0.iq.fu_full::SimdFloatMultAcc            0      0.00%     17.50% # attempts to use FU when none available
system.cpu0.iq.fu_full::SimdFloatSqrt               0      0.00%     17.50% # attempts to use FU when none available
system.cpu0.iq.fu_full::SimdReduceAdd               0      0.00%     17.50% # attempts to use FU when none available
system.cpu0.iq.fu_full::SimdReduceAlu               0      0.00%     17.50% # attempts to use FU when none available
system.cpu0.iq.fu_full::SimdReduceCmp               0      0.00%     17.50% # attempts to use FU when none available
system.cpu0.iq.fu_full::SimdFloatReduceAdd            0      0.00%     17.50% # attempts to use FU when none available
system.cpu0.iq.fu_full::SimdFloatReduceCmp            0      0.00%     17.50% # attempts to use FU when none available
system.cpu0.iq.fu_full::SimdAes                     0      0.00%     17.50% # attempts to use FU when none available
system.cpu0.iq.fu_full::SimdAesMix                  0      0.00%     17.50% # attempts to use FU when none available
system.cpu0.iq.fu_full::SimdSha1Hash                0      0.00%     17.50% # attempts to use FU when none available
system.cpu0.iq.fu_full::SimdSha1Hash2               0      0.00%     17.50% # attempts to use FU when none available
system.cpu0.iq.fu_full::SimdSha256Hash              0      0.00%     17.50% # attempts to use FU when none available
system.cpu0.iq.fu_full::SimdSha256Hash2             0      0.00%     17.50% # attempts to use FU when none available
system.cpu0.iq.fu_full::SimdShaSigma2               0      0.00%     17.50% # attempts to use FU when none available
system.cpu0.iq.fu_full::SimdShaSigma3               0      0.00%     17.50% # attempts to use FU when none available
system.cpu0.iq.fu_full::SimdPredAlu                 0      0.00%     17.50% # attempts to use FU when none available
system.cpu0.iq.fu_full::MemRead                492935     70.26%     87.76% # attempts to use FU when none available
system.cpu0.iq.fu_full::MemWrite                85886     12.24%    100.00% # attempts to use FU when none available
system.cpu0.iq.fu_full::FloatMemRead                0      0.00%    100.00% # attempts to use FU when none available
system.cpu0.iq.fu_full::FloatMemWrite               4      0.00%    100.00% # attempts to use FU when none available
system.cpu0.iq.fu_full::IprAccess                   0      0.00%    100.00% # attempts to use FU when none available
system.cpu0.iq.fu_full::InstPrefetch                0      0.00%    100.00% # attempts to use FU when none available
system.cpu0.iq.int_alu_accesses             613913790                       # Number of integer alu accesses
system.cpu0.iq.int_inst_queue_reads        2120613108                       # Number of integer instruction queue reads
system.cpu0.iq.int_inst_queue_wakeup_accesses    603917337                       # Number of integer instruction queue wakeup accesses
system.cpu0.iq.int_inst_queue_writes        668471955                       # Number of integer instruction queue writes
system.cpu0.iq.iqInstsAdded                 613850921                       # Number of instructions added to the IQ (excludes non-spec)
system.cpu0.iq.iqInstsIssued                614233193                       # Number of instructions issued
system.cpu0.iq.iqNonSpecInstsAdded            1532845                       # Number of non-speculative instructions added to the IQ
system.cpu0.iq.iqSquashedInstsExamined       53083829                       # Number of squashed instructions iterated over during squash; mainly for profiling
system.cpu0.iq.iqSquashedInstsIssued            55834                       # Number of squashed instructions issued
system.cpu0.iq.iqSquashedNonSpecRemoved           494                       # Number of squashed non-spec instructions that were removed
system.cpu0.iq.iqSquashedOperandsExamined     11577062                       # Number of squashed operands that are examined and possibly removed from graph
system.cpu0.iq.issued_per_cycle::samples    891389376                       # Number of insts issued each cycle
system.cpu0.iq.issued_per_cycle::mean        0.689074                       # Number of insts issued each cycle
system.cpu0.iq.issued_per_cycle::stdev       0.869299                       # Number of insts issued each cycle
system.cpu0.iq.issued_per_cycle::underflows            0      0.00%      0.00% # Number of insts issued each cycle
system.cpu0.iq.issued_per_cycle::0          463973840     52.05%     52.05% # Number of insts issued each cycle
system.cpu0.iq.issued_per_cycle::1          285530288     32.03%     84.08% # Number of insts issued each cycle
system.cpu0.iq.issued_per_cycle::2          104488359     11.72%     95.80% # Number of insts issued each cycle
system.cpu0.iq.issued_per_cycle::3           31111531      3.49%     99.29% # Number of insts issued each cycle
system.cpu0.iq.issued_per_cycle::4            5592602      0.63%     99.92% # Number of insts issued each cycle
system.cpu0.iq.issued_per_cycle::5             302858      0.03%     99.96% # Number of insts issued each cycle
system.cpu0.iq.issued_per_cycle::6             273724      0.03%     99.99% # Number of insts issued each cycle
system.cpu0.iq.issued_per_cycle::7              64840      0.01%     99.99% # Number of insts issued each cycle
system.cpu0.iq.issued_per_cycle::8              51334      0.01%    100.00% # Number of insts issued each cycle
system.cpu0.iq.issued_per_cycle::overflows            0      0.00%    100.00% # Number of insts issued each cycle
system.cpu0.iq.issued_per_cycle::min_value            0                       # Number of insts issued each cycle
system.cpu0.iq.issued_per_cycle::max_value            8                       # Number of insts issued each cycle
system.cpu0.iq.issued_per_cycle::total      891389376                       # Number of insts issued each cycle
system.cpu0.iq.rate                          0.638375                       # Inst issue rate
system.cpu0.iq.vec_alu_accesses                     0                       # Number of vector alu accesses
system.cpu0.iq.vec_inst_queue_reads                 0                       # Number of vector instruction queue reads
system.cpu0.iq.vec_inst_queue_wakeup_accesses            0                       # Number of vector instruction queue wakeup accesses
system.cpu0.iq.vec_inst_queue_writes                0                       # Number of vector instruction queue writes
system.cpu0.itb.accesses                            0                       # DTB accesses
system.cpu0.itb.hits                                0                       # DTB hits
system.cpu0.itb.misses                              0                       # DTB misses
system.cpu0.itb.read_accesses                       0                       # DTB read accesses
system.cpu0.itb.read_hits                           0                       # DTB read hits
system.cpu0.itb.read_misses                         0                       # DTB read misses
system.cpu0.itb.write_accesses                      0                       # DTB write accesses
system.cpu0.itb.write_hits                          0                       # DTB write hits
system.cpu0.itb.write_misses                        0                       # DTB write misses
system.cpu0.memDep0.conflictingLoads          7375547                       # Number of conflicting loads.
system.cpu0.memDep0.conflictingStores         1352378                       # Number of conflicting stores.
system.cpu0.memDep0.insertedLoads           197113122                       # Number of loads inserted to the mem dependence unit.
system.cpu0.memDep0.insertedStores           78181917                       # Number of stores inserted to the mem dependence unit.
system.cpu0.misc_regfile_reads                   1033                       # number of misc regfile reads
system.cpu0.misc_regfile_writes                    22                       # number of misc regfile writes
system.cpu0.numCycles                       962182237                       # number of cpu cycles simulated
system.cpu0.numWorkItemsCompleted                   0                       # number of work items this cpu completed
system.cpu0.numWorkItemsStarted                     0                       # number of work items this cpu started
system.cpu0.quiesceCycles                    13426384                       # Total number of cycles that CPU has spent quiesced or waiting for an interrupt
system.cpu0.rename.BlockCycles               96163136                       # Number of cycles rename is blocking
system.cpu0.rename.CommittedMaps            357818069                       # Number of HB maps that are committed
system.cpu0.rename.IQFullEvents               3640543                       # Number of times rename has blocked due to IQ full
system.cpu0.rename.IdleCycles               347506552                       # Number of cycles rename is idle
system.cpu0.rename.LQFullEvents               3109765                       # Number of times rename has blocked due to LQ full
system.cpu0.rename.ROBFullEvents                 6075                       # Number of times rename has blocked due to ROB full
system.cpu0.rename.RenameLookups            759792418                       # Number of register rename lookups that rename has made
system.cpu0.rename.RenamedInsts             623135674                       # Number of instructions processed by rename
system.cpu0.rename.RenamedOperands          399627394                       # Number of destination operands rename has renamed
system.cpu0.rename.RunCycles                430709159                       # Number of cycles rename is running
system.cpu0.rename.SQFullEvents               5538130                       # Number of times rename has blocked due to SQ full
system.cpu0.rename.SquashCycles               4554364                       # Number of cycles rename is squashing
system.cpu0.rename.UnblockCycles             12348328                       # Number of cycles rename is unblocking
system.cpu0.rename.UndoneMaps                41809321                       # Number of HB maps that are undone due to squashing
system.cpu0.rename.fp_rename_lookups               44                       # Number of floating rename lookups
system.cpu0.rename.int_rename_lookups       759792374                       # Number of integer rename lookups
system.cpu0.rename.serializeStallCycles        107837                       # count of cycles rename stalled for serializing inst
system.cpu0.rename.serializingInsts              3152                       # count of serializing insts renamed
system.cpu0.rename.skidInsts                  7403312                       # count of insts added to the skid buffer
system.cpu0.rename.tempSerializingInsts          3141                       # count of temporary serializing insts renamed
system.cpu0.rob.rob_reads                  1480131192                       # The number of ROB reads
system.cpu0.rob.rob_writes                 1240244036                       # The number of ROB writes
system.cpu0.timesIdled                       11601247                       # Number of times that the entire CPU went into an idle state and unscheduled itself
system.cpu0.workload.numSyscalls                 1000                       # Number of system calls
system.cpu1.branchPred.BTBCorrect                   0                       # Number of correct BTB predictions (this stat may not work properly.
system.cpu1.branchPred.BTBHitPct            79.931134                       # BTB Hit Percentage
system.cpu1.branchPred.BTBHits                2899374                       # Number of BTB hits
system.cpu1.branchPred.BTBLookups             3627340                       # Number of BTB lookups
system.cpu1.branchPred.RASInCorrect                 0                       # Number of incorrect RAS predictions.
system.cpu1.branchPred.condIncorrect           388150                       # Number of conditional branches incorrect
system.cpu1.branchPred.condPredicted          4809194                       # Number of conditional branches predicted
system.cpu1.branchPred.indirectHits            136357                       # Number of indirect target hits.
system.cpu1.branchPred.indirectLookups         139605                       # Number of indirect predictor lookups.
system.cpu1.branchPred.indirectMisses            3248                       # Number of indirect misses.
system.cpu1.branchPred.lookups                5427098                       # Number of BP lookups
system.cpu1.branchPred.usedRAS                      0                       # Number of times the RAS was used to get a target.
system.cpu1.branchPredindirectMispredicted         8789                       # Number of mispredicted indirect branches.
system.cpu1.commit.amos                        509186                       # Number of atomic instructions committed
system.cpu1.commit.branchMispredicts           288497                       # The number of times a branch was mispredicted
system.cpu1.commit.branches                   4419498                       # Number of branches committed
system.cpu1.commit.bw_lim_events               459599                       # number cycles where commit BW limit reached
system.cpu1.commit.commitNonSpecStalls        1528238                       # The number of times commit has been forced to stall to communicate backwards
system.cpu1.commit.commitSquashedInsts        2266834                       # The number of squashed insts skipped by commit
system.cpu1.commit.committedInsts            19243900                       # Number of instructions committed
system.cpu1.commit.committedOps              19753295                       # Number of ops (including micro ops) committed
system.cpu1.commit.committed_per_cycle::samples    114439554                       # Number of insts commited each cycle
system.cpu1.commit.committed_per_cycle::mean     0.172609                       # Number of insts commited each cycle
system.cpu1.commit.committed_per_cycle::stdev     0.815514                       # Number of insts commited each cycle
system.cpu1.commit.committed_per_cycle::underflows            0      0.00%      0.00% # Number of insts commited each cycle
system.cpu1.commit.committed_per_cycle::0    106143825     92.75%     92.75% # Number of insts commited each cycle
system.cpu1.commit.committed_per_cycle::1      4139959      3.62%     96.37% # Number of insts commited each cycle
system.cpu1.commit.committed_per_cycle::2      1420178      1.24%     97.61% # Number of insts commited each cycle
system.cpu1.commit.committed_per_cycle::3      1286585      1.12%     98.73% # Number of insts commited each cycle
system.cpu1.commit.committed_per_cycle::4       323821      0.28%     99.02% # Number of insts commited each cycle
system.cpu1.commit.committed_per_cycle::5       121696      0.11%     99.12% # Number of insts commited each cycle
system.cpu1.commit.committed_per_cycle::6       474568      0.41%     99.54% # Number of insts commited each cycle
system.cpu1.commit.committed_per_cycle::7        69323      0.06%     99.60% # Number of insts commited each cycle
system.cpu1.commit.committed_per_cycle::8       459599      0.40%    100.00% # Number of insts commited each cycle
system.cpu1.commit.committed_per_cycle::overflows            0      0.00%    100.00% # Number of insts commited each cycle
system.cpu1.commit.committed_per_cycle::min_value            0                       # Number of insts commited each cycle
system.cpu1.commit.committed_per_cycle::max_value            8                       # Number of insts commited each cycle
system.cpu1.commit.committed_per_cycle::total    114439554                       # Number of insts commited each cycle
system.cpu1.commit.fp_insts                        12                       # Number of committed floating point instructions.
system.cpu1.commit.function_calls              227428                       # Number of function calls committed.
system.cpu1.commit.int_insts                 18552740                       # Number of committed integer instructions.
system.cpu1.commit.loads                      5320242                       # Number of loads committed
system.cpu1.commit.membars                    1018446                       # Number of memory barriers committed
system.cpu1.commit.op_class_0::No_OpClass      1018446      5.16%      5.16% # Class of committed instruction
system.cpu1.commit.op_class_0::IntAlu        11645723     58.96%     64.11% # Class of committed instruction
system.cpu1.commit.op_class_0::IntMult             42      0.00%     64.11% # Class of committed instruction
system.cpu1.commit.op_class_0::IntDiv              84      0.00%     64.11% # Class of committed instruction
system.cpu1.commit.op_class_0::FloatAdd             0      0.00%     64.11% # Class of committed instruction
system.cpu1.commit.op_class_0::FloatCmp             0      0.00%     64.11% # Class of committed instruction
system.cpu1.commit.op_class_0::FloatCvt             0      0.00%     64.11% # Class of committed instruction
system.cpu1.commit.op_class_0::FloatMult            0      0.00%     64.11% # Class of committed instruction
system.cpu1.commit.op_class_0::FloatMultAcc            0      0.00%     64.11% # Class of committed instruction
system.cpu1.commit.op_class_0::FloatDiv             0      0.00%     64.11% # Class of committed instruction
system.cpu1.commit.op_class_0::FloatMisc            0      0.00%     64.11% # Class of committed instruction
system.cpu1.commit.op_class_0::FloatSqrt            0      0.00%     64.11% # Class of committed instruction
system.cpu1.commit.op_class_0::SimdAdd              0      0.00%     64.11% # Class of committed instruction
system.cpu1.commit.op_class_0::SimdAddAcc            0      0.00%     64.11% # Class of committed instruction
system.cpu1.commit.op_class_0::SimdAlu              0      0.00%     64.11% # Class of committed instruction
system.cpu1.commit.op_class_0::SimdCmp              0      0.00%     64.11% # Class of committed instruction
system.cpu1.commit.op_class_0::SimdCvt              0      0.00%     64.11% # Class of committed instruction
system.cpu1.commit.op_class_0::SimdMisc             0      0.00%     64.11% # Class of committed instruction
system.cpu1.commit.op_class_0::SimdMult             0      0.00%     64.11% # Class of committed instruction
system.cpu1.commit.op_class_0::SimdMultAcc            0      0.00%     64.11% # Class of committed instruction
system.cpu1.commit.op_class_0::SimdShift            0      0.00%     64.11% # Class of committed instruction
system.cpu1.commit.op_class_0::SimdShiftAcc            0      0.00%     64.11% # Class of committed instruction
system.cpu1.commit.op_class_0::SimdDiv              0      0.00%     64.11% # Class of committed instruction
system.cpu1.commit.op_class_0::SimdSqrt             0      0.00%     64.11% # Class of committed instruction
system.cpu1.commit.op_class_0::SimdFloatAdd            0      0.00%     64.11% # Class of committed instruction
system.cpu1.commit.op_class_0::SimdFloatAlu            0      0.00%     64.11% # Class of committed instruction
system.cpu1.commit.op_class_0::SimdFloatCmp            0      0.00%     64.11% # Class of committed instruction
system.cpu1.commit.op_class_0::SimdFloatCvt            0      0.00%     64.11% # Class of committed instruction
system.cpu1.commit.op_class_0::SimdFloatDiv            0      0.00%     64.11% # Class of committed instruction
system.cpu1.commit.op_class_0::SimdFloatMisc            0      0.00%     64.11% # Class of committed instruction
system.cpu1.commit.op_class_0::SimdFloatMult            0      0.00%     64.11% # Class of committed instruction
system.cpu1.commit.op_class_0::SimdFloatMultAcc            0      0.00%     64.11% # Class of committed instruction
system.cpu1.commit.op_class_0::SimdFloatSqrt            0      0.00%     64.11% # Class of committed instruction
system.cpu1.commit.op_class_0::SimdReduceAdd            0      0.00%     64.11% # Class of committed instruction
system.cpu1.commit.op_class_0::SimdReduceAlu            0      0.00%     64.11% # Class of committed instruction
system.cpu1.commit.op_class_0::SimdReduceCmp            0      0.00%     64.11% # Class of committed instruction
system.cpu1.commit.op_class_0::SimdFloatReduceAdd            0      0.00%     64.11% # Class of committed instruction
system.cpu1.commit.op_class_0::SimdFloatReduceCmp            0      0.00%     64.11% # Class of committed instruction
system.cpu1.commit.op_class_0::SimdAes              0      0.00%     64.11% # Class of committed instruction
system.cpu1.commit.op_class_0::SimdAesMix            0      0.00%     64.11% # Class of committed instruction
system.cpu1.commit.op_class_0::SimdSha1Hash            0      0.00%     64.11% # Class of committed instruction
system.cpu1.commit.op_class_0::SimdSha1Hash2            0      0.00%     64.11% # Class of committed instruction
system.cpu1.commit.op_class_0::SimdSha256Hash            0      0.00%     64.11% # Class of committed instruction
system.cpu1.commit.op_class_0::SimdSha256Hash2            0      0.00%     64.11% # Class of committed instruction
system.cpu1.commit.op_class_0::SimdShaSigma2            0      0.00%     64.11% # Class of committed instruction
system.cpu1.commit.op_class_0::SimdShaSigma3            0      0.00%     64.11% # Class of committed instruction
system.cpu1.commit.op_class_0::SimdPredAlu            0      0.00%     64.11% # Class of committed instruction
system.cpu1.commit.op_class_0::MemRead        5829428     29.51%     93.62% # Class of committed instruction
system.cpu1.commit.op_class_0::MemWrite       1259560      6.38%    100.00% # Class of committed instruction
system.cpu1.commit.op_class_0::FloatMemRead            0      0.00%    100.00% # Class of committed instruction
system.cpu1.commit.op_class_0::FloatMemWrite           12      0.00%    100.00% # Class of committed instruction
system.cpu1.commit.op_class_0::IprAccess            0      0.00%    100.00% # Class of committed instruction
system.cpu1.commit.op_class_0::InstPrefetch            0      0.00%    100.00% # Class of committed instruction
system.cpu1.commit.op_class_0::total         19753295                       # Class of committed instruction
system.cpu1.commit.refs                       7089000                       # Number of memory references committed
system.cpu1.commit.swp_count                        0                       # Number of s/w prefetches committed
system.cpu1.commit.vec_insts                        0                       # Number of committed Vector instructions.
system.cpu1.committedInsts                   19243900                       # Number of Instructions Simulated
system.cpu1.committedOps                     19753295                       # Number of Ops (including micro ops) Simulated
system.cpu1.cpi                              5.993688                       # CPI: Cycles Per Instruction
system.cpu1.cpi_total                        5.993688                       # CPI: Total CPI of All Threads
system.cpu1.decode.BlockedCycles            100830105                       # Number of cycles decode is blocked
system.cpu1.decode.BranchMispred               105004                       # Number of times decode detected a branch misprediction
system.cpu1.decode.BranchResolved             2759334                       # Number of times decode resolved a branch
system.cpu1.decode.DecodedInsts              23050739                       # Number of instructions handled by decode
system.cpu1.decode.IdleCycles                 3877937                       # Number of cycles decode is idle
system.cpu1.decode.RunCycles                  8750770                       # Number of cycles decode is running
system.cpu1.decode.SquashCycles                288946                       # Number of cycles decode is squashing
system.cpu1.decode.SquashedInsts               261016                       # Number of squashed instructions handled by decode
system.cpu1.decode.UnblockCycles              1170793                       # Number of cycles decode is unblocking
system.cpu1.dtb.accesses                            0                       # DTB accesses
system.cpu1.dtb.hits                                0                       # DTB hits
system.cpu1.dtb.misses                              0                       # DTB misses
system.cpu1.dtb.read_accesses                       0                       # DTB read accesses
system.cpu1.dtb.read_hits                           0                       # DTB read hits
system.cpu1.dtb.read_misses                         0                       # DTB read misses
system.cpu1.dtb.write_accesses                      0                       # DTB write accesses
system.cpu1.dtb.write_hits                          0                       # DTB write hits
system.cpu1.dtb.write_misses                        0                       # DTB write misses
system.cpu1.fetch.Branches                    5427098                       # Number of branches that fetch encountered
system.cpu1.fetch.CacheLines                  3603959                       # Number of cache lines fetched
system.cpu1.fetch.Cycles                    110493312                       # Number of cycles fetch has run and was not squashing or blocked
system.cpu1.fetch.IcacheSquashes                71475                       # Number of outstanding Icache misses that were squashed
system.cpu1.fetch.IcacheWaitRetryStallCycles            2                       # Number of stall cycles due to full MSHR
system.cpu1.fetch.Insts                      23596568                       # Number of instructions fetch has processed
system.cpu1.fetch.MiscStallCycles                   3                       # Number of cycles fetch has spent waiting on interrupts, or bad addresses, or out of MSHRs
system.cpu1.fetch.PendingTrapStallCycles            8                       # Number of stall cycles due to pending traps
system.cpu1.fetch.SquashCycles                 777198                       # Number of cycles fetch has spent squashing
system.cpu1.fetch.branchRate                 0.047052                       # Number of branch fetches per cycle
system.cpu1.fetch.icacheStallCycles           4036627                       # Number of cycles fetch is stalled on an Icache miss
system.cpu1.fetch.predictedBranches           3035731                       # Number of branches that fetch has predicted taken
system.cpu1.fetch.rate                       0.204579                       # Number of inst fetches per cycle
system.cpu1.fetch.rateDist::samples         114918551                       # Number of instructions fetched each cycle (Total)
system.cpu1.fetch.rateDist::mean             0.209775                       # Number of instructions fetched each cycle (Total)
system.cpu1.fetch.rateDist::stdev            0.640118                       # Number of instructions fetched each cycle (Total)
system.cpu1.fetch.rateDist::underflows              0      0.00%      0.00% # Number of instructions fetched each cycle (Total)
system.cpu1.fetch.rateDist::0                99984891     87.01%     87.01% # Number of instructions fetched each cycle (Total)
system.cpu1.fetch.rateDist::1                 9115286      7.93%     94.94% # Number of instructions fetched each cycle (Total)
system.cpu1.fetch.rateDist::2                 3493896      3.04%     97.98% # Number of instructions fetched each cycle (Total)
system.cpu1.fetch.rateDist::3                 1635489      1.42%     99.40% # Number of instructions fetched each cycle (Total)
system.cpu1.fetch.rateDist::4                  465658      0.41%     99.81% # Number of instructions fetched each cycle (Total)
system.cpu1.fetch.rateDist::5                  105526      0.09%     99.90% # Number of instructions fetched each cycle (Total)
system.cpu1.fetch.rateDist::6                  117620      0.10%    100.00% # Number of instructions fetched each cycle (Total)
system.cpu1.fetch.rateDist::7                       9      0.00%    100.00% # Number of instructions fetched each cycle (Total)
system.cpu1.fetch.rateDist::8                     176      0.00%    100.00% # Number of instructions fetched each cycle (Total)
system.cpu1.fetch.rateDist::overflows               0      0.00%    100.00% # Number of instructions fetched each cycle (Total)
system.cpu1.fetch.rateDist::min_value               0                       # Number of instructions fetched each cycle (Total)
system.cpu1.fetch.rateDist::max_value               8                       # Number of instructions fetched each cycle (Total)
system.cpu1.fetch.rateDist::total           114918551                       # Number of instructions fetched each cycle (Total)
system.cpu1.fp_regfile_reads                       12                       # number of floating regfile reads
system.cpu1.idleCycles                         423380                       # Total number of cycles that the CPU has spent unscheduled due to idling
system.cpu1.iew.branchMispredicts              306108                       # Number of branch mispredicts detected at execute
system.cpu1.iew.exec_branches                 4752562                       # Number of branches executed
system.cpu1.iew.exec_nop                            0                       # number of nop insts executed
system.cpu1.iew.exec_rate                    0.185151                       # Inst execution rate
system.cpu1.iew.exec_refs                     7697588                       # number of memory reference insts executed
system.cpu1.iew.exec_stores                   1849497                       # Number of stores executed
system.cpu1.iew.exec_swp                            0                       # number of swp insts executed
system.cpu1.iew.iewBlockCycles               88248129                       # Number of cycles IEW is blocking
system.cpu1.iew.iewDispLoadInsts              5925125                       # Number of dispatched load instructions
system.cpu1.iew.iewDispNonSpecInsts            509998                       # Number of dispatched non-speculative instructions
system.cpu1.iew.iewDispSquashedInsts           309058                       # Number of squashed instructions skipped by dispatch
system.cpu1.iew.iewDispStoreInsts             1921621                       # Number of dispatched store instructions
system.cpu1.iew.iewDispatchedInsts           22015000                       # Number of instructions dispatched to IQ
system.cpu1.iew.iewExecLoadInsts              5848091                       # Number of load instructions executed
system.cpu1.iew.iewExecSquashedInsts           270122                       # Number of squashed instructions skipped in execute
system.cpu1.iew.iewExecutedInsts             21355622                       # Number of executed instructions
system.cpu1.iew.iewIQFullEvents                530022                       # Number of times the IQ has become full, causing a stall
system.cpu1.iew.iewIdleCycles                       0                       # Number of cycles IEW is idle
system.cpu1.iew.iewLSQFullEvents               997899                       # Number of times the LSQ has become full, causing a stall
system.cpu1.iew.iewSquashCycles                288946                       # Number of cycles IEW is squashing
system.cpu1.iew.iewUnblockCycles              2093048                       # Number of cycles IEW is unblocking
system.cpu1.iew.lsq.thread0.blockedLoads            0                       # Number of blocked loads due to partial load-store forwarding
system.cpu1.iew.lsq.thread0.cacheBlocked        15662                       # Number of times an access to memory failed due to the cache being blocked
system.cpu1.iew.lsq.thread0.forwLoads          144250                       # Number of loads that had data forwarded from stores
system.cpu1.iew.lsq.thread0.ignoredResponses         6760                       # Number of memory responses ignored because the instruction is squashed
system.cpu1.iew.lsq.thread0.invAddrLoads            0                       # Number of loads ignored due to an invalid address
system.cpu1.iew.lsq.thread0.invAddrSwpfs            0                       # Number of software prefetches ignored due to an invalid address
system.cpu1.iew.lsq.thread0.memOrderViolation          459                       # Number of memory ordering violations
system.cpu1.iew.lsq.thread0.rescheduledLoads         1153                       # Number of loads that were rescheduled
system.cpu1.iew.lsq.thread0.squashedLoads       604883                       # Number of loads squashed
system.cpu1.iew.lsq.thread0.squashedStores       152863                       # Number of stores squashed
system.cpu1.iew.memOrderViolationEvents           459                       # Number of memory order violations
system.cpu1.iew.predictedNotTakenIncorrect        92051                       # Number of branches that were predicted not taken incorrectly
system.cpu1.iew.predictedTakenIncorrect        214057                       # Number of branches that were predicted taken incorrectly
system.cpu1.iew.wb_consumers                 11995727                       # num instructions consuming a value
system.cpu1.iew.wb_count                     21115059                       # cumulative count of insts written-back
system.cpu1.iew.wb_fanout                    0.850337                       # average fanout of values written-back
system.cpu1.iew.wb_producers                 10200409                       # num instructions producing a value
system.cpu1.iew.wb_rate                      0.183065                       # insts written-back per cycle
system.cpu1.iew.wb_sent                      21123629                       # cumulative count of insts sent to commit
system.cpu1.int_regfile_reads                26624567                       # number of integer regfile reads
system.cpu1.int_regfile_writes               14139246                       # number of integer regfile writes
system.cpu1.ipc                              0.166842                       # IPC: Instructions Per Cycle
system.cpu1.ipc_total                        0.166842                       # IPC: Total IPC of All Threads
system.cpu1.iq.FU_type_0::No_OpClass          1018652      4.71%      4.71% # Type of FU issued
system.cpu1.iq.FU_type_0::IntAlu             12825011     59.30%     64.01% # Type of FU issued
system.cpu1.iq.FU_type_0::IntMult                  48      0.00%     64.01% # Type of FU issued
system.cpu1.iq.FU_type_0::IntDiv                   86      0.00%     64.02% # Type of FU issued
system.cpu1.iq.FU_type_0::FloatAdd                  0      0.00%     64.02% # Type of FU issued
system.cpu1.iq.FU_type_0::FloatCmp                  0      0.00%     64.02% # Type of FU issued
system.cpu1.iq.FU_type_0::FloatCvt                  0      0.00%     64.02% # Type of FU issued
system.cpu1.iq.FU_type_0::FloatMult                 0      0.00%     64.02% # Type of FU issued
system.cpu1.iq.FU_type_0::FloatMultAcc              0      0.00%     64.02% # Type of FU issued
system.cpu1.iq.FU_type_0::FloatDiv                  0      0.00%     64.02% # Type of FU issued
system.cpu1.iq.FU_type_0::FloatMisc                 0      0.00%     64.02% # Type of FU issued
system.cpu1.iq.FU_type_0::FloatSqrt                 0      0.00%     64.02% # Type of FU issued
system.cpu1.iq.FU_type_0::SimdAdd                   0      0.00%     64.02% # Type of FU issued
system.cpu1.iq.FU_type_0::SimdAddAcc                0      0.00%     64.02% # Type of FU issued
system.cpu1.iq.FU_type_0::SimdAlu                   0      0.00%     64.02% # Type of FU issued
system.cpu1.iq.FU_type_0::SimdCmp                   0      0.00%     64.02% # Type of FU issued
system.cpu1.iq.FU_type_0::SimdCvt                   0      0.00%     64.02% # Type of FU issued
system.cpu1.iq.FU_type_0::SimdMisc                  0      0.00%     64.02% # Type of FU issued
system.cpu1.iq.FU_type_0::SimdMult                  0      0.00%     64.02% # Type of FU issued
system.cpu1.iq.FU_type_0::SimdMultAcc               0      0.00%     64.02% # Type of FU issued
system.cpu1.iq.FU_type_0::SimdShift                 0      0.00%     64.02% # Type of FU issued
system.cpu1.iq.FU_type_0::SimdShiftAcc              0      0.00%     64.02% # Type of FU issued
system.cpu1.iq.FU_type_0::SimdDiv                   0      0.00%     64.02% # Type of FU issued
system.cpu1.iq.FU_type_0::SimdSqrt                  0      0.00%     64.02% # Type of FU issued
system.cpu1.iq.FU_type_0::SimdFloatAdd              0      0.00%     64.02% # Type of FU issued
system.cpu1.iq.FU_type_0::SimdFloatAlu              0      0.00%     64.02% # Type of FU issued
system.cpu1.iq.FU_type_0::SimdFloatCmp              0      0.00%     64.02% # Type of FU issued
system.cpu1.iq.FU_type_0::SimdFloatCvt              0      0.00%     64.02% # Type of FU issued
system.cpu1.iq.FU_type_0::SimdFloatDiv              0      0.00%     64.02% # Type of FU issued
system.cpu1.iq.FU_type_0::SimdFloatMisc             0      0.00%     64.02% # Type of FU issued
system.cpu1.iq.FU_type_0::SimdFloatMult             0      0.00%     64.02% # Type of FU issued
system.cpu1.iq.FU_type_0::SimdFloatMultAcc            0      0.00%     64.02% # Type of FU issued
system.cpu1.iq.FU_type_0::SimdFloatSqrt             0      0.00%     64.02% # Type of FU issued
system.cpu1.iq.FU_type_0::SimdReduceAdd             0      0.00%     64.02% # Type of FU issued
system.cpu1.iq.FU_type_0::SimdReduceAlu             0      0.00%     64.02% # Type of FU issued
system.cpu1.iq.FU_type_0::SimdReduceCmp             0      0.00%     64.02% # Type of FU issued
system.cpu1.iq.FU_type_0::SimdFloatReduceAdd            0      0.00%     64.02% # Type of FU issued
system.cpu1.iq.FU_type_0::SimdFloatReduceCmp            0      0.00%     64.02% # Type of FU issued
system.cpu1.iq.FU_type_0::SimdAes                   0      0.00%     64.02% # Type of FU issued
system.cpu1.iq.FU_type_0::SimdAesMix                0      0.00%     64.02% # Type of FU issued
system.cpu1.iq.FU_type_0::SimdSha1Hash              0      0.00%     64.02% # Type of FU issued
system.cpu1.iq.FU_type_0::SimdSha1Hash2             0      0.00%     64.02% # Type of FU issued
system.cpu1.iq.FU_type_0::SimdSha256Hash            0      0.00%     64.02% # Type of FU issued
system.cpu1.iq.FU_type_0::SimdSha256Hash2            0      0.00%     64.02% # Type of FU issued
system.cpu1.iq.FU_type_0::SimdShaSigma2             0      0.00%     64.02% # Type of FU issued
system.cpu1.iq.FU_type_0::SimdShaSigma3             0      0.00%     64.02% # Type of FU issued
system.cpu1.iq.FU_type_0::SimdPredAlu               0      0.00%     64.02% # Type of FU issued
system.cpu1.iq.FU_type_0::MemRead             6425802     29.71%     93.73% # Type of FU issued
system.cpu1.iq.FU_type_0::MemWrite            1356133      6.27%    100.00% # Type of FU issued
system.cpu1.iq.FU_type_0::FloatMemRead              0      0.00%    100.00% # Type of FU issued
system.cpu1.iq.FU_type_0::FloatMemWrite            12      0.00%    100.00% # Type of FU issued
system.cpu1.iq.FU_type_0::IprAccess                 0      0.00%    100.00% # Type of FU issued
system.cpu1.iq.FU_type_0::InstPrefetch              0      0.00%    100.00% # Type of FU issued
system.cpu1.iq.FU_type_0::total              21625744                       # Type of FU issued
system.cpu1.iq.fp_alu_accesses                     16                       # Number of floating point alu accesses
system.cpu1.iq.fp_inst_queue_reads                 28                       # Number of floating instruction queue reads
system.cpu1.iq.fp_inst_queue_wakeup_accesses           12                       # Number of floating instruction queue wakeup accesses
system.cpu1.iq.fp_inst_queue_writes                12                       # Number of floating instruction queue writes
system.cpu1.iq.fu_busy_cnt                     559703                       # FU busy when requested
system.cpu1.iq.fu_busy_rate                  0.025881                       # FU busy rate (busy events/executed inst)
system.cpu1.iq.fu_full::No_OpClass                  0      0.00%      0.00% # attempts to use FU when none available
system.cpu1.iq.fu_full::IntAlu                  92560     16.54%     16.54% # attempts to use FU when none available
system.cpu1.iq.fu_full::IntMult                     0      0.00%     16.54% # attempts to use FU when none available
system.cpu1.iq.fu_full::IntDiv                      0      0.00%     16.54% # attempts to use FU when none available
system.cpu1.iq.fu_full::FloatAdd                    0      0.00%     16.54% # attempts to use FU when none available
system.cpu1.iq.fu_full::FloatCmp                    0      0.00%     16.54% # attempts to use FU when none available
system.cpu1.iq.fu_full::FloatCvt                    0      0.00%     16.54% # attempts to use FU when none available
system.cpu1.iq.fu_full::FloatMult                   0      0.00%     16.54% # attempts to use FU when none available
system.cpu1.iq.fu_full::FloatMultAcc                0      0.00%     16.54% # attempts to use FU when none available
system.cpu1.iq.fu_full::FloatDiv                    0      0.00%     16.54% # attempts to use FU when none available
system.cpu1.iq.fu_full::FloatMisc                   0      0.00%     16.54% # attempts to use FU when none available
system.cpu1.iq.fu_full::FloatSqrt                   0      0.00%     16.54% # attempts to use FU when none available
system.cpu1.iq.fu_full::SimdAdd                     0      0.00%     16.54% # attempts to use FU when none available
system.cpu1.iq.fu_full::SimdAddAcc                  0      0.00%     16.54% # attempts to use FU when none available
system.cpu1.iq.fu_full::SimdAlu                     0      0.00%     16.54% # attempts to use FU when none available
system.cpu1.iq.fu_full::SimdCmp                     0      0.00%     16.54% # attempts to use FU when none available
system.cpu1.iq.fu_full::SimdCvt                     0      0.00%     16.54% # attempts to use FU when none available
system.cpu1.iq.fu_full::SimdMisc                    0      0.00%     16.54% # attempts to use FU when none available
system.cpu1.iq.fu_full::SimdMult                    0      0.00%     16.54% # attempts to use FU when none available
system.cpu1.iq.fu_full::SimdMultAcc                 0      0.00%     16.54% # attempts to use FU when none available
system.cpu1.iq.fu_full::SimdShift                   0      0.00%     16.54% # attempts to use FU when none available
system.cpu1.iq.fu_full::SimdShiftAcc                0      0.00%     16.54% # attempts to use FU when none available
system.cpu1.iq.fu_full::SimdDiv                     0      0.00%     16.54% # attempts to use FU when none available
system.cpu1.iq.fu_full::SimdSqrt                    0      0.00%     16.54% # attempts to use FU when none available
system.cpu1.iq.fu_full::SimdFloatAdd                0      0.00%     16.54% # attempts to use FU when none available
system.cpu1.iq.fu_full::SimdFloatAlu                0      0.00%     16.54% # attempts to use FU when none available
system.cpu1.iq.fu_full::SimdFloatCmp                0      0.00%     16.54% # attempts to use FU when none available
system.cpu1.iq.fu_full::SimdFloatCvt                0      0.00%     16.54% # attempts to use FU when none available
system.cpu1.iq.fu_full::SimdFloatDiv                0      0.00%     16.54% # attempts to use FU when none available
system.cpu1.iq.fu_full::SimdFloatMisc               0      0.00%     16.54% # attempts to use FU when none available
system.cpu1.iq.fu_full::SimdFloatMult               0      0.00%     16.54% # attempts to use FU when none available
system.cpu1.iq.fu_full::SimdFloatMultAcc            0      0.00%     16.54% # attempts to use FU when none available
system.cpu1.iq.fu_full::SimdFloatSqrt               0      0.00%     16.54% # attempts to use FU when none available
system.cpu1.iq.fu_full::SimdReduceAdd               0      0.00%     16.54% # attempts to use FU when none available
system.cpu1.iq.fu_full::SimdReduceAlu               0      0.00%     16.54% # attempts to use FU when none available
system.cpu1.iq.fu_full::SimdReduceCmp               0      0.00%     16.54% # attempts to use FU when none available
system.cpu1.iq.fu_full::SimdFloatReduceAdd            0      0.00%     16.54% # attempts to use FU when none available
system.cpu1.iq.fu_full::SimdFloatReduceCmp            0      0.00%     16.54% # attempts to use FU when none available
system.cpu1.iq.fu_full::SimdAes                     0      0.00%     16.54% # attempts to use FU when none available
system.cpu1.iq.fu_full::SimdAesMix                  0      0.00%     16.54% # attempts to use FU when none available
system.cpu1.iq.fu_full::SimdSha1Hash                0      0.00%     16.54% # attempts to use FU when none available
system.cpu1.iq.fu_full::SimdSha1Hash2               0      0.00%     16.54% # attempts to use FU when none available
system.cpu1.iq.fu_full::SimdSha256Hash              0      0.00%     16.54% # attempts to use FU when none available
system.cpu1.iq.fu_full::SimdSha256Hash2             0      0.00%     16.54% # attempts to use FU when none available
system.cpu1.iq.fu_full::SimdShaSigma2               0      0.00%     16.54% # attempts to use FU when none available
system.cpu1.iq.fu_full::SimdShaSigma3               0      0.00%     16.54% # attempts to use FU when none available
system.cpu1.iq.fu_full::SimdPredAlu                 0      0.00%     16.54% # attempts to use FU when none available
[...]
system.cpu1.dcache.WriteReq_avg_mshr_miss_latency::total 86734.373502                       # average WriteReq mshr miss latency
system.cpu1.dcache.LoadLockedReq_hits::.cpu1.data        30468                       # number of LoadLockedReq hits
system.cpu1.dcache.LoadLockedReq_hits::total        30468                       # number of LoadLockedReq hits
system.cpu1.dcache.LoadLockedReq_misses::.cpu1.data         1588                       # number of LoadLockedReq misses
system.cpu1.dcache.LoadLockedReq_misses::total         1588                       # number of LoadLockedReq misses
system.cpu1.dcache.LoadLockedReq_miss_latency::.cpu1.data     43352000                       # number of LoadLockedReq miss cycles
system.cpu1.dcache.LoadLockedReq_miss_latency::total     43352000                       # number of LoadLockedReq miss cycles
system.cpu1.dcache.LoadLockedReq_accesses::.cpu1.data        32056                       # number of LoadLockedReq accesses(hits+misses)
system.cpu1.dcache.LoadLockedReq_accesses::total        32056                       # number of LoadLockedReq accesses(hits+misses)
system.cpu1.dcache.LoadLockedReq_miss_rate::.cpu1.data     0.049538                       # miss rate for LoadLockedReq accesses
system.cpu1.dcache.LoadLockedReq_miss_rate::total     0.049538                       # miss rate for LoadLockedReq accesses
system.cpu1.dcache.LoadLockedReq_avg_miss_latency::.cpu1.data 27299.748111                       # average LoadLockedReq miss latency
system.cpu1.dcache.LoadLockedReq_avg_miss_latency::total 27299.748111                       # average LoadLockedReq miss latency
system.cpu1.dcache.LoadLockedReq_mshr_hits::.cpu1.data          439                       # number of LoadLockedReq MSHR hits
system.cpu1.dcache.LoadLockedReq_mshr_hits::total          439                       # number of LoadLockedReq MSHR hits
system.cpu1.dcache.LoadLockedReq_mshr_misses::.cpu1.data         1149                       # number of LoadLockedReq MSHR misses
system.cpu1.dcache.LoadLockedReq_mshr_misses::total         1149                       # number of LoadLockedReq MSHR misses
system.cpu1.dcache.LoadLockedReq_mshr_miss_latency::.cpu1.data     18697500                       # number of LoadLockedReq MSHR miss cycles
system.cpu1.dcache.LoadLockedReq_mshr_miss_latency::total     18697500                       # number of LoadLockedReq MSHR miss cycles
system.cpu1.dcache.LoadLockedReq_mshr_miss_rate::.cpu1.data     0.035844                       # mshr miss rate for LoadLockedReq accesses
system.cpu1.dcache.LoadLockedReq_mshr_miss_rate::total     0.035844                       # mshr miss rate for LoadLockedReq accesses
system.cpu1.dcache.LoadLockedReq_avg_mshr_miss_latency::.cpu1.data 16272.845953                       # average LoadLockedReq mshr miss latency
system.cpu1.dcache.LoadLockedReq_avg_mshr_miss_latency::total 16272.845953                       # average LoadLockedReq mshr miss latency
system.cpu1.dcache.StoreCondReq_hits::.cpu1.data        24747                       # number of StoreCondReq hits
system.cpu1.dcache.StoreCondReq_hits::total        24747                       # number of StoreCondReq hits
system.cpu1.dcache.StoreCondReq_misses::.cpu1.data         5923                       # number of StoreCondReq misses
system.cpu1.dcache.StoreCondReq_misses::total         5923                       # number of StoreCondReq misses
system.cpu1.dcache.StoreCondReq_miss_latency::.cpu1.data     45398000                       # number of StoreCondReq miss cycles
system.cpu1.dcache.StoreCondReq_miss_latency::total     45398000                       # number of StoreCondReq miss cycles
system.cpu1.dcache.StoreCondReq_accesses::.cpu1.data        30670                       # number of StoreCondReq accesses(hits+misses)
system.cpu1.dcache.StoreCondReq_accesses::total        30670                       # number of StoreCondReq accesses(hits+misses)
system.cpu1.dcache.StoreCondReq_miss_rate::.cpu1.data     0.193120                       # miss rate for StoreCondReq accesses
system.cpu1.dcache.StoreCondReq_miss_rate::total     0.193120                       # miss rate for StoreCondReq accesses
system.cpu1.dcache.StoreCondReq_avg_miss_latency::.cpu1.data  7664.696944                       # average StoreCondReq miss latency
system.cpu1.dcache.StoreCondReq_avg_miss_latency::total  7664.696944                       # average StoreCondReq miss latency
system.cpu1.dcache.StoreCondReq_mshr_misses::.cpu1.data         5781                       # number of StoreCondReq MSHR misses
system.cpu1.dcache.StoreCondReq_mshr_misses::total         5781                       # number of StoreCondReq MSHR misses
system.cpu1.dcache.StoreCondReq_mshr_miss_latency::.cpu1.data     39755000                       # number of StoreCondReq MSHR miss cycles
system.cpu1.dcache.StoreCondReq_mshr_miss_latency::total     39755000                       # number of StoreCondReq MSHR miss cycles
system.cpu1.dcache.StoreCondReq_mshr_miss_rate::.cpu1.data     0.188490                       # mshr miss rate for StoreCondReq accesses
system.cpu1.dcache.StoreCondReq_mshr_miss_rate::total     0.188490                       # mshr miss rate for StoreCondReq accesses
system.cpu1.dcache.StoreCondReq_avg_mshr_miss_latency::.cpu1.data  6876.837917                       # average StoreCondReq mshr miss latency
system.cpu1.dcache.StoreCondReq_avg_mshr_miss_latency::total  6876.837917                       # average StoreCondReq mshr miss latency
system.cpu1.dcache.StoreCondFailReq_miss_latency::.cpu1.data      3466500                       # number of StoreCondFailReq miss cycles
system.cpu1.dcache.StoreCondFailReq_miss_latency::total      3466500                       # number of StoreCondFailReq miss cycles
system.cpu1.dcache.StoreCondFailReq_avg_miss_latency::.cpu1.data          inf                       # average StoreCondFailReq miss latency
system.cpu1.dcache.StoreCondFailReq_avg_miss_latency::total          inf                       # average StoreCondFailReq miss latency
system.cpu1.dcache.StoreCondFailReq_mshr_miss_latency::.cpu1.data      3328500                       # number of StoreCondFailReq MSHR miss cycles
system.cpu1.dcache.StoreCondFailReq_mshr_miss_latency::total      3328500                       # number of StoreCondFailReq MSHR miss cycles
system.cpu1.dcache.StoreCondFailReq_avg_mshr_miss_latency::.cpu1.data          inf                       # average StoreCondFailReq mshr miss latency
system.cpu1.dcache.StoreCondFailReq_avg_mshr_miss_latency::total          inf                       # average StoreCondFailReq mshr miss latency
system.cpu1.dcache.SwapReq_hits::.cpu1.data         1031                       # number of SwapReq hits
system.cpu1.dcache.SwapReq_hits::total           1031                       # number of SwapReq hits
system.cpu1.dcache.SwapReq_misses::.cpu1.data         3041                       # number of SwapReq misses
system.cpu1.dcache.SwapReq_misses::total         3041                       # number of SwapReq misses
system.cpu1.dcache.SwapReq_miss_latency::.cpu1.data     43565500                       # number of SwapReq miss cycles
system.cpu1.dcache.SwapReq_miss_latency::total     43565500                       # number of SwapReq miss cycles
system.cpu1.dcache.SwapReq_accesses::.cpu1.data         4072                       # number of SwapReq accesses(hits+misses)
system.cpu1.dcache.SwapReq_accesses::total         4072                       # number of SwapReq accesses(hits+misses)
system.cpu1.dcache.SwapReq_miss_rate::.cpu1.data     0.746807                       # miss rate for SwapReq accesses
system.cpu1.dcache.SwapReq_miss_rate::total     0.746807                       # miss rate for SwapReq accesses
system.cpu1.dcache.SwapReq_avg_miss_latency::.cpu1.data 14326.044064                       # average SwapReq miss latency
system.cpu1.dcache.SwapReq_avg_miss_latency::total 14326.044064                       # average SwapReq miss latency
system.cpu1.dcache.SwapReq_mshr_hits::.cpu1.data            2                       # number of SwapReq MSHR hits
system.cpu1.dcache.SwapReq_mshr_hits::total            2                       # number of SwapReq MSHR hits
system.cpu1.dcache.SwapReq_mshr_misses::.cpu1.data         3039                       # number of SwapReq MSHR misses
system.cpu1.dcache.SwapReq_mshr_misses::total         3039                       # number of SwapReq MSHR misses
system.cpu1.dcache.SwapReq_mshr_miss_latency::.cpu1.data     40524500                       # number of SwapReq MSHR miss cycles
system.cpu1.dcache.SwapReq_mshr_miss_latency::total     40524500                       # number of SwapReq MSHR miss cycles
system.cpu1.dcache.SwapReq_mshr_miss_rate::.cpu1.data     0.746316                       # mshr miss rate for SwapReq accesses
system.cpu1.dcache.SwapReq_mshr_miss_rate::total     0.746316                       # mshr miss rate for SwapReq accesses
system.cpu1.dcache.SwapReq_avg_mshr_miss_latency::.cpu1.data 13334.814084                       # average SwapReq mshr miss latency
system.cpu1.dcache.SwapReq_avg_mshr_miss_latency::total 13334.814084                       # average SwapReq mshr miss latency
system.cpu1.dcache.tags.pwrStateResidencyTicks::UNDEFINED  43647731500                       # Cumulative time (in ticks) in various power states
system.cpu1.dcache.tags.tagsinuse           31.092731                       # Cycle average of tags in use
system.cpu1.dcache.tags.total_refs            9452222                       # Total number of references to valid blocks.
system.cpu1.dcache.tags.sampled_refs           643004                       # Sample count of references to valid blocks.
system.cpu1.dcache.tags.avg_refs            14.700098                       # Average number of references to valid blocks.
system.cpu1.dcache.tags.warmup_cycle                0                       # Cycle when the warmup percentage was hit.
system.cpu1.dcache.tags.occ_blocks::.cpu1.data    31.092731                       # Average occupied blocks per requestor
system.cpu1.dcache.tags.occ_percent::.cpu1.data     0.971648                       # Average percentage of cache occupancy
system.cpu1.dcache.tags.occ_percent::total     0.971648                       # Average percentage of cache occupancy
system.cpu1.dcache.tags.occ_task_id_blocks::1024           29                       # Occupied blocks per task id
system.cpu1.dcache.tags.age_task_id_blocks_1024::1           29                       # Occupied blocks per task id
system.cpu1.dcache.tags.occ_task_id_percent::1024     0.906250                       # Percentage of cache occupancy per task id
system.cpu1.dcache.tags.tag_accesses         23988964                       # Number of tag accesses
system.cpu1.dcache.tags.data_accesses        23988964                       # Number of data accesses
system.cpu_clk_domain.clock                       500                       # Clock period in ticks
system.tol2bus.pwrStateResidencyTicks::UNDEFINED  43647731500                       # Cumulative time (in ticks) in various power states
system.tol2bus.trans_dist::ReadResp           2643272                       # Transaction distribution
system.tol2bus.trans_dist::ReadRespWithInvalidate           14                       # Transaction distribution
system.tol2bus.trans_dist::WritebackDirty       836628                       # Transaction distribution
system.tol2bus.trans_dist::WritebackClean      2287179                       # Transaction distribution
system.tol2bus.trans_dist::CleanEvict         5991722                       # Transaction distribution
system.tol2bus.trans_dist::HardPFReq          4792725                       # Transaction distribution
system.tol2bus.trans_dist::HardPFResp               5                       # Transaction distribution
system.tol2bus.trans_dist::UpgradeReq           14214                       # Transaction distribution
system.tol2bus.trans_dist::SCUpgradeReq         22517                       # Transaction distribution
system.tol2bus.trans_dist::UpgradeResp          36731                       # Transaction distribution
system.tol2bus.trans_dist::SCUpgradeFailReq          424                       # Transaction distribution
system.tol2bus.trans_dist::UpgradeFailResp          424                       # Transaction distribution
system.tol2bus.trans_dist::ReadExReq           144326                       # Transaction distribution
system.tol2bus.trans_dist::ReadExResp          144326                       # Transaction distribution
system.tol2bus.trans_dist::ReadCleanReq        179697                       # Transaction distribution
system.tol2bus.trans_dist::ReadSharedReq      2463589                       # Transaction distribution
system.tol2bus.trans_dist::InvalidateReq          224                       # Transaction distribution
system.tol2bus.trans_dist::InvalidateResp          224                       # Transaction distribution
system.tol2bus.pkt_count_system.cpu0.icache.mem_side::system.l2.cpu_side       330993                       # Packet count per connected master and slave (bytes)
system.tol2bus.pkt_count_system.cpu0.dcache.mem_side::system.l2.cpu_side      2120680                       # Packet count per connected master and slave (bytes)
system.tol2bus.pkt_count_system.cpu1.icache.mem_side::system.l2.cpu_side        69762                       # Packet count per connected master and slave (bytes)
system.tol2bus.pkt_count_system.cpu1.dcache.mem_side::system.l2.cpu_side      1912717                       # Packet count per connected master and slave (bytes)
system.tol2bus.pkt_count_system.cpu2.icache.mem_side::system.l2.cpu_side        69723                       # Packet count per connected master and slave (bytes)
system.tol2bus.pkt_count_system.cpu2.dcache.mem_side::system.l2.cpu_side      1886244                       # Packet count per connected master and slave (bytes)
system.tol2bus.pkt_count_system.cpu3.icache.mem_side::system.l2.cpu_side        68613                       # Packet count per connected master and slave (bytes)
system.tol2bus.pkt_count_system.cpu3.dcache.mem_side::system.l2.cpu_side      1847689                       # Packet count per connected master and slave (bytes)
system.tol2bus.pkt_count::total               8306421                       # Packet count per connected master and slave (bytes)
system.tol2bus.pkt_size_system.cpu0.icache.mem_side::system.l2.cpu_side     14122368                       # Cumulative packet size per connected master and slave (bytes)
system.tol2bus.pkt_size_system.cpu0.dcache.mem_side::system.l2.cpu_side     89408704                       # Cumulative packet size per connected master and slave (bytes)
system.tol2bus.pkt_size_system.cpu1.icache.mem_side::system.l2.cpu_side      2976512                       # Cumulative packet size per connected master and slave (bytes)
system.tol2bus.pkt_size_system.cpu1.dcache.mem_side::system.l2.cpu_side     80605824                       # Cumulative packet size per connected master and slave (bytes)
system.tol2bus.pkt_size_system.cpu2.icache.mem_side::system.l2.cpu_side      2974848                       # Cumulative packet size per connected master and slave (bytes)
system.tol2bus.pkt_size_system.cpu2.dcache.mem_side::system.l2.cpu_side     79529472                       # Cumulative packet size per connected master and slave (bytes)
system.tol2bus.pkt_size_system.cpu3.icache.mem_side::system.l2.cpu_side      2927488                       # Cumulative packet size per connected master and slave (bytes)
system.tol2bus.pkt_size_system.cpu3.dcache.mem_side::system.l2.cpu_side     77844736                       # Cumulative packet size per connected master and slave (bytes)
system.tol2bus.pkt_size::total              350389952                       # Cumulative packet size per connected master and slave (bytes)
system.tol2bus.snoops                        11251825                       # Total snoops (count)
system.tol2bus.snoopTraffic                  27968640                       # Total snoop traffic (bytes)
system.tol2bus.snoop_fanout::samples         14017206                       # Request fanout histogram
system.tol2bus.snoop_fanout::mean            0.256908                       # Request fanout histogram
system.tol2bus.snoop_fanout::stdev           0.593896                       # Request fanout histogram
system.tol2bus.snoop_fanout::underflows             0      0.00%      0.00% # Request fanout histogram
system.tol2bus.snoop_fanout::0               11203386     79.93%     79.93% # Request fanout histogram
system.tol2bus.snoop_fanout::1                2318005     16.54%     96.46% # Request fanout histogram
system.tol2bus.snoop_fanout::2                 259535      1.85%     98.31% # Request fanout histogram
system.tol2bus.snoop_fanout::3                 181060      1.29%     99.61% # Request fanout histogram
system.tol2bus.snoop_fanout::4                  55220      0.39%    100.00% # Request fanout histogram
system.tol2bus.snoop_fanout::5                      0      0.00%    100.00% # Request fanout histogram
system.tol2bus.snoop_fanout::6                      0      0.00%    100.00% # Request fanout histogram
system.tol2bus.snoop_fanout::7                      0      0.00%    100.00% # Request fanout histogram
system.tol2bus.snoop_fanout::8                      0      0.00%    100.00% # Request fanout histogram
system.tol2bus.snoop_fanout::overflows              0      0.00%    100.00% # Request fanout histogram
system.tol2bus.snoop_fanout::min_value              0                       # Request fanout histogram
system.tol2bus.snoop_fanout::max_value              4                       # Request fanout histogram
system.tol2bus.snoop_fanout::total           14017206                       # Request fanout histogram
system.tol2bus.reqLayer0.occupancy         5556558295                       # Layer occupancy (ticks)
system.tol2bus.reqLayer0.utilization             12.7                       # Layer utilization (%)
system.tol2bus.respLayer5.occupancy         959549464                       # Layer occupancy (ticks)
system.tol2bus.respLayer5.utilization             2.2                       # Layer utilization (%)
system.tol2bus.respLayer4.occupancy          36785573                       # Layer occupancy (ticks)
system.tol2bus.respLayer4.utilization             0.1                       # Layer utilization (%)
system.tol2bus.respLayer7.occupancy         940508315                       # Layer occupancy (ticks)
system.tol2bus.respLayer7.utilization             2.2                       # Layer utilization (%)
system.tol2bus.respLayer6.occupancy          35932820                       # Layer occupancy (ticks)
system.tol2bus.respLayer6.utilization             0.1                       # Layer utilization (%)
system.tol2bus.respLayer1.occupancy        1075437698                       # Layer occupancy (ticks)
system.tol2bus.respLayer1.utilization             2.5                       # Layer utilization (%)
system.tol2bus.respLayer0.occupancy         165737454                       # Layer occupancy (ticks)
system.tol2bus.respLayer0.utilization             0.4                       # Layer utilization (%)
system.tol2bus.respLayer3.occupancy         973509408                       # Layer occupancy (ticks)
system.tol2bus.respLayer3.utilization             2.2                       # Layer utilization (%)
system.tol2bus.respLayer2.occupancy          36781596                       # Layer occupancy (ticks)
system.tol2bus.respLayer2.utilization             0.1                       # Layer utilization (%)
system.tol2bus.snoopLayer0.occupancy             7503                       # Layer occupancy (ticks)
system.tol2bus.snoopLayer0.utilization            0.0                       # Layer utilization (%)

---------- End Simulation Statistics   ----------
