Redirecting stdout to /vol1/msoyturk/gem5/results/sssp/dblp.el/prefetch_DCPTPrefetcher_BRRIPRP/output.txt
Redirecting stderr to /vol1/msoyturk/gem5/results/sssp/dblp.el/prefetch_DCPTPrefetcher_BRRIPRP/error.txt
gem5 Simulator System.  http://gem5.org
gem5 is copyrighted software; use the --copyright option for details.

gem5 compiled Apr 26 2020 13:32:47
gem5 started Apr 26 2020 14:10:05
gem5 executing on draco, pid 2894
command line: /vol1/msoyturk/gem5/build/RISCV/gem5.fast -re --outdir=/vol1/msoyturk/gem5/results/sssp/dblp.el/prefetch_DCPTPrefetcher_BRRIPRP --stdout-file=output.txt --stderr-file=error.txt /vol1/msoyturk/gem5/configs/example/my_se.py -c /vol1/msoyturk/gem5/gapbs/sssp -o '-f /vol1/msoyturk/gem5/gapbs/test/graphs/dblp.el' --caches --l1d_size=2kB --l1i_size=2kB --cpu-type=DerivO3CPU -n 4 --mem-size=512MB --l2cache --l2_size=4kB --l2-hwp-type=DCPTPrefetcher --l2-replacement-policy=BRRIPRP --l1i_mshrs=4 --l1d_mshrs=4 --l2_mshrs=20 --l1i_write_buffers=8 --l1d_write_buffers=8 --l2_write_buffers=8

info: Standard input is not a terminal, disabling listeners.
Warning: l2-hwp-type is set ( DCPTPrefetcher ), but the current l2 has a default Hardware Prefetcher of type <class 'm5.params.NullSimObject'> , using the specified by the flag option.
Global frequency set at 1000000000000 ticks per second
**** REAL SIMULATION ****
Read Time:           1.09952
Build Time:          0.26439
Graph has 425957 nodes and 1049866 directed edges for degree: 2
    0          1     0.02893
   36          1     0.00717
  114          2     0.05192
  118          1     0.00601
  120          1     0.00611
  139          1     0.01276
  143          1     0.01197
  147          1     0.01966
  150          2     0.00562
  154          1     0.01200
  156          2     0.01246
  160          1     0.00744
  166          1     0.00561
  168          1     0.00607
  176          1     0.03196
  181          1     0.00699
  182          1     0.00654
  183          1     0.01162
  184          1     0.00681
  186          1     0.00651
  187          1     0.00665
  189          1     0.00677
  191          1     0.02062
  195          1     0.00672
  204          1     0.00931
  208          1     0.00902
  211          3     0.01304
  212          1     0.00919
  214          1     0.00628
  220          1     0.00647
  221          1     0.04207
  222          1     0.00650
  223          1     0.00626
  225          2     0.01856
  227          1     0.01621
  228          1     0.00722
  229          1     0.00592
  230          5     0.00675
  234          1     0.01326
  238          2     0.00641
  239          2     0.01068
  243          1     0.00584
  245          1     0.00912
  247          1     0.00610
  248          2     0.00622
  252          2     0.02577
  254          2     0.00698
  256          4     0.02330
  260          1     0.00856
  262          3     0.00704
  265          3     0.00650
  267          2     0.01074
  268          2     0.01048
  270          2     0.01024
  271          3     0.00648
  272          1     0.00628
  274          3     0.01248
  275          1     0.00621
  276          1     0.00630
  277          1     0.01733
  279          2     0.00672
  280          1     0.00589
  282          1     0.00599
  283          2     0.01042
  284          2     0.00605
  286          1     0.00599
  289          2     0.00630
  291          1     0.00974
  292          2     0.00626
  293          1     0.00558
  294          2     0.00572
  295          2     0.00547
  298          1     0.00553
  299          1     0.00537
  300          1     0.00547
  301          1     0.02049
  302          3     0.00709
  303          2     0.02170
  304          2     0.01605
  305          1     0.01080
  307          1     0.01217
  310          1     0.00631
  311          3     0.01347
  312          1     0.00572
  313          1     0.00533
  314          1     0.00979
  316          2     0.01800
  317          4     0.01147
  318          3     0.01155
  320          1     0.00595
  321          1     0.00596
  323          2     0.02172
  324          1     0.00649
  325          1     0.00646
  326          1     0.00594
  327          3     0.01072
  328          1     0.00628
  329          2     0.00728
  332          3     0.01476
  333          2     0.02713
  334          3     0.02375
  335          3     0.01283
  338          4     0.00935
  341          4     0.01491
  343          3     0.01431
  344          2     0.01236
  345          2     0.01618
  346          1     0.00614
  347          2     0.01059
  349          5     0.02203
  350          1     0.00818
  352          2     0.01456
  353          2     0.00840
  354          2     0.00605
  355          2     0.01367
  356          3     0.01330
  357          3     0.01223
  358          2     0.01104
  359          1     0.00969
  360          3     0.00560
  362          3     0.00607
  363          1     0.00557
  364          2     0.00832
  365          1     0.00547
  366          3     0.00806
  368          3     0.00608
  369          1     0.00579
  370          1     0.01084
  371          5     0.01250
  372          2     0.00957
  373          1     0.00691
  375          1     0.00627
  376          3     0.01776
  377          1     0.00590
  378          1     0.00559
  379          4     0.00593
  380          2     0.01262
  381          2     0.00573
  382          2     0.02572
  383          1     0.01851
  385          4     0.01183
  386          2     0.00789
  387          2     0.01147
  388          2     0.01187
  389          4     0.00745
  390          1     0.01476
  391          4     0.01108
  393          2     0.00555
  394          1     0.00571
  396          2     0.00561
  397          1     0.00797
  398          3     0.00608
  399          4     0.00602
  400          3     0.00571
  401          3     0.00561
  402          1     0.01026
  403          3     0.01703
  404          1     0.00643
  405          3     0.01248
  406          1     0.01659
  407          2     0.00626
  409          5     0.01168
  410          2     0.00554
  411          1     0.00531
  413          2     0.00532
  414          1     0.00518
  415          1     0.01253
  417          3     0.00595
  418          3     0.02993
  419          1     0.00687
  420          2     0.00816
  421          2     0.00851
  422          1     0.00569
  423          2     0.01438
  424          1     0.01131
  425          1     0.00579
  426          1     0.00551
  427          2     0.00611
  428          2     0.01753
  429          3     0.00700
  430          2     0.00603
  431          2     0.01005
  432          1     0.00605
  433          3     0.01026
  434          2     0.00899
  435          2     0.01340
  436          1     0.01094
  437          3     0.00578
  438          3     0.00649
  439          1     0.00611
  441          3     0.00610
  443          1     0.00604
  444          2     0.00595
  445          1     0.01287
  446          4     0.01170
  447          3     0.01178
  448          4     0.00685
  449          2     0.00601
  450          3     0.01253
  451          1     0.00621
  452          2     0.01526
  453          3     0.01196
  454          1     0.01695
  456          3     0.00633
  457          2     0.01836
  458          2     0.00657
  459          1     0.00574
  461          1     0.01104
  462          4     0.01293
  463          3     0.01879
  464          2     0.00655
  465          2     0.00623
  466          3     0.00600
  467          4     0.01917
  468          5     0.01132
  469          2     0.00586
  470          2     0.00558
  471          3     0.00981
  472          3     0.00593
  473          3     0.00689
  474          3     0.01198
  475          5     0.00939
  476          4     0.01071
  477          2     0.00566
  478          2     0.00568
  479          3     0.00914
  480          2     0.00661
  481          2     0.00914
  482          2     0.00547
  483          1     0.00582
  484          1     0.00558
  485          2     0.00901
  486          1     0.01591
  487          5     0.01023
  489          1     0.01186
  490          3     0.00632
  491          4     0.00624
  492          1     0.00888
  493          3     0.01580
  496          2     0.00569
  497          3     0.01394
  498          4     0.03714
  499          2     0.00637
  501          2     0.00844
  502          4     0.00659
  503          1     0.00612
  505          5     0.00605
  506          2     0.01106
  507          3     0.01064
  508          3     0.00623
  509          1     0.00629
  510          2     0.02175
  511          5     0.02543
  512          1     0.01406
  513          3     0.00622
  514          2     0.00572
  515          4     0.01122
  516          2     0.01325
  517          2     0.01408
  518          3     0.02354
  519          3     0.01319
  520          1     0.00901
  521          2     0.00571
  522          3     0.00577
  523          1     0.00553
  527          4     0.01329
  528          4     0.00998
  529          2     0.00578
  530          3     0.00820
  531          5     0.02227
  532          1     0.00919
  533          4     0.01220
  534          1     0.00562
  535          4     0.00591
  537          2     0.00970
  538          1     0.00550
  539          4     0.00625
  540          1     0.00550
  541          4     0.01482
  542          2     0.00602
  543         10     0.01489
  544          3     0.01871
  545          2     0.00668
  546          2     0.00800
  547          3     0.01486
  548          3     0.00624
  549          3     0.01128
  550          4     0.01363
  551          2     0.01329
  552          2     0.00615
  553          1     0.00621
  555          2     0.00616
  556          4     0.00627
  557          1     0.01386
  558          2     0.00648
  559          4     0.01303
  560          2     0.00596
  561          1     0.01345
  562          6     0.00600
  563          1     0.00539
  564          2     0.01234
  565          1     0.00589
  566          5     0.01383
  567          4     0.00629
  568          2     0.01316
  569          3     0.00976
  570          1     0.00587
  571          2     0.00515
  572          3     0.00686
  573          2     0.00593
  574          2     0.00610
  575          1     0.00588
  576          6     0.00751
  577          2     0.00612
  578          1     0.00567
  579          1     0.00587
  581          6     0.00955
  582          2     0.00599
  583          1     0.00597
  584          3     0.02072
  585          1     0.00620
  586          6     0.01107
  587          5     0.00938
  588          3     0.01024
  589          3     0.00657
  590          2     0.01702
  591          4     0.01095
  592          6     0.01707
  594          4     0.00634
  595          1     0.00572
  597          2     0.00529
  598          2     0.00526
  599          3     0.00588
  600          1     0.00558
  601          1     0.00566
  602          1     0.00557
  603          2     0.01041
  604          3     0.00812
  605          5     0.00742
  606          3     0.01853
  607          2     0.00639
  608          3     0.00597
  609          2     0.00881
  610          2     0.00608
  611          2     0.00966
  612          1     0.01406
  614          1     0.01099
  615          3     0.00658
  616          4     0.00614
  617          2     0.01213
  618          3     0.01542
  619          5     0.00607
  622          3     0.01263
  623          5     0.01005
  624          3     0.01244
  625          2     0.00532
  626          3     0.00831
  627          4     0.04880
  628          3     0.00910
  630          4     0.00767
  631          1     0.00564
  632          1     0.00560
  633          4     0.02518
  634          1     0.01397
  635          1     0.00635
  636          1     0.00991
  637          4     0.01853
  638          1     0.00603
  640          4     0.02105
  641          3     0.01180
  642          1     0.00835
  643          2     0.01932
  644          3     0.00655
  645          1     0.00590
  646          1     0.00592
  647          3     0.00605
  648          1     0.00582
  649          1     0.00553
  650          2     0.00530
  652          4     0.02089
  653          4     0.00623
  655          3     0.01009
  656          1     0.01009
  657          1     0.00536
  658          1     0.00560
  660          1     0.00518
  661          1     0.00522
  662          2     0.00514
  663          3     0.01247
  664          3     0.00554
  665          4     0.01911
  666          2     0.00654
  667          3     0.00587
  668          1     0.01528
  669          1     0.01590
  670          1     0.00593
  671          3     0.00822
  672          2     0.00570
  674          1     0.00544
  675          2     0.00608
  677          1     0.01103
  678          3     0.01166
  679          3     0.00619
  680          4     0.00874
  681          4     0.00590
  682          7     0.01332
  683          2     0.00766
  684          1     0.00565
  685          4     0.02702
  686          4     0.01726
  687          4     0.00889
  688          3     0.01369
  690          4     0.00628
  691          1     0.00578
  692          3     0.03448
  693          2     0.00643
  694          3     0.00919
  695          3     0.02973
  696          1     0.00805
  697          6     0.01195
  698          1     0.01158
  699          7     0.01550
  700          2     0.00573
  701          3     0.01263
  702          1     0.00567
  703          3     0.00882
  704          1     0.02494
  705          3     0.01379
  706          2     0.00837
  707          3     0.00654
  708          5     0.01365
  710          6     0.01002
  711          6     0.01015
  712          3     0.01169
  713          3     0.01166
  714          6     0.02064
  715          2     0.00979
  716          1     0.00557
  717          1     0.02842
  718          2     0.01951
  719          4     0.01192
  720          1     0.01579
  721          6     0.01060
  722          3     0.02475
  723          5     0.00890
  724          3     0.00996
  725          6     0.01042
  726          1     0.00869
  727          5     0.00553
  728          3     0.00489
  729          6     0.01941
  730          4     0.01934
  731          3     0.00987
  732          3     0.00671
  733          1     0.00562
  734          5     0.02064
  735          3     0.00658
  736          2     0.00564
  737          4     0.00980
  738          2     0.00571
  739          3     0.01283
  740          2     0.01371
  741          4     0.01092
  742          4     0.00846
  743          4     0.01184
  744          5     0.01038
  745          3     0.01092
  746          3     0.00790
  747          4     0.00714
  748          3     0.00619
  749          1     0.00524
  750          6     0.00645
  751          5     0.01752
  752          5     0.01881
  753          2     0.00590
  754          3     0.00531
  755          5     0.00991
  756          5     0.01135
  757          5     0.01305
  758          1     0.00742
  759          2     0.01752
  760          7     0.02152
  761          4     0.02082
  762          4     0.00679
  763          3     0.00854
  764          4     0.00648
  765          4     0.01956
  766          2     0.00585
  767          2     0.00588
  768          3     0.01120
  769          2     0.01018
  770          4     0.01320
  771          3     0.01065
  772          3     0.02513
  773          2     0.00600
  774          4     0.01127
  775          2     0.00547
  776          2     0.01988
  777          4     0.00779
  778          5     0.02930
  779          6     0.01996
  780          2     0.00951
  781          3     0.01220
  782          2     0.00577
  783          4     0.00619
  784          5     0.01055
  786          3     0.00554
  788          6     0.01713
  789          4     0.01644
  790          5     0.00975
  791          4     0.01100
  792          2     0.01731
  793          4     0.01679
  794          2     0.00647
  796          1     0.00891
  797          3     0.00921
  798          2     0.00681
  799          4     0.01227
  800          2     0.00966
  801          3     0.01512
  802          6     0.02070
  803          3     0.00626
  804          3     0.01819
  805          3     0.01337
  806          3     0.01558
  807          4     0.01379
  808          4     0.01754
  809          4     0.00727
  810          2     0.01503
  811          2     0.00859
  812          5     0.01826
  813          5     0.01045
  814          2     0.01099
  815          2     0.01368
  816          3     0.00593
  817          5     0.00615
  818          5     0.00588
  819          2     0.00551
  820          4     0.01017
  821          2     0.00591
  822          3     0.01278
  823          1     0.00589
  824          8     0.00926
  825          1     0.00627
  826          5     0.01139
  827          8     0.04884
  828          7     0.01362
  829          2     0.00623
  830          7     0.01293
  831          5     0.00655
  832          2     0.00975
  833          2     0.00573
  834          3     0.00784
  835          3     0.01179
  836          4     0.01773
  837          5     0.01066
  838          3     0.01109
  839          6     0.02672
  840          3     0.01069
  841          6     0.02656
  842          8     0.02149
  843          2     0.01082
  844          2     0.00604
  845          4     0.00731
  846          3     0.01118
  847          8     0.02113
  848          6     0.02676
  849          3     0.00586
  850          3     0.00658
  851          3     0.01704
  852          2     0.01035
  853          5     0.01080
  854          6     0.01009
  855          7     0.00899
  856          2     0.00573
  857          2     0.00693
  858          8     0.00611
  859          5     0.01094
  860          3     0.00951
  861          5     0.01376
  862          2     0.01911
  863          3     0.01042
  864          8     0.01428
  865          8     0.01365
  866          7     0.00643
  867          5     0.01136
  868          7     0.00980
  869          7     0.00710
  870          3     0.00571
  871          5     0.00715
  872         10     0.01092
  873          5     0.00812
  874         10     0.01903
  875          4     0.01578
  876          3     0.01540
  877          5     0.00849
  878          6     0.00950
  879          7     0.01795
  880          3     0.01083
  881          2     0.00561
  882          3     0.00609
  883          5     0.00824
  884          4     0.01410
  885          3     0.01189
  886          2     0.01035
  887          3     0.01528
  888          6     0.01334
  889          3     0.00694
  890          5     0.04338
  891          5     0.01637
  892          6     0.00677
  893          2     0.00555
  894          4     0.00636
  895          7     0.02809
  896          5     0.00906
  897          7     0.00658
  898          8     0.02213
  899          3     0.00644
  900          3     0.01202
  901          4     0.00642
  902          2     0.00639
  903          3     0.00960
  904          1     0.01414
  905          3     0.00637
  906          4     0.01206
  907          4     0.01222
  908          5     0.00764
  909          5     0.01007
  910          5     0.00937
  911         10     0.02867
  912          4     0.00675
  913          3     0.00627
  914          2     0.00616
  915          5     0.03026
  916          5     0.01247
  917          4     0.00951
  918          4     0.01361
  919          8     0.01076
  920          6     0.01231
  921          8     0.01621
  922          7     0.02225
  923          8     0.01277
  924          7     0.01153
  925          6     0.00872
  926          4     0.00958
  927          5     0.01388
  928          8     0.01191
  929          3     0.01006
  930          4     0.01836
  931          3     0.02174
  932          5     0.01560
  933          4     0.01845
  934          6     0.00661
  935          5     0.01411
  936          4     0.00733
  937          2     0.00598
  938          4     0.00564
  939          5     0.01201
  940          4     0.00980
  941          7     0.02193
  942          4     0.00738
  943          2     0.01048
  944          4     0.00679
  945          3     0.00964
  946          5     0.00932
  947          4     0.01059
  948          5     0.00961
  949          3     0.02117
  950          4     0.01551
  951          4     0.00653
  952          4     0.00899
  953          7     0.00909
  954          7     0.01283
  955          5     0.01248
  956          7     0.01943
  957         12     0.01923
  958          9     0.01833
  959          7     0.01296
  960          3     0.00615
  961          7     0.01358
  962          5     0.00631
  963          9     0.01001
  964          6     0.04936
  965          4     0.01770
  966          3     0.01163
  967          4     0.00664
  968          8     0.03596
  969          3     0.00692
  970          8     0.02397
  971          5     0.00877
  972          7     0.01083
  973          3     0.01829
  974          5     0.01149
  975          3     0.01280
  976          4     0.00696
  977          7     0.02421
  978         11     0.02283
  979          6     0.01140
  980          3     0.01165
  981          3     0.00892
  982          3     0.01126
  983          6     0.01225
  984          5     0.00978
  985          7     0.02834
  986          6     0.01154
  987          5     0.01712
  988          8     0.01002
  989          5     0.00713
  990          8     0.01601
  991          8     0.00903
  992          7     0.01043
  993          7     0.01177
  994          5     0.01116
  995          5     0.01243
  996          4     0.00626
  997          4     0.00685
  998          7     0.00952
  999         11     0.02324
 1000          5     0.00877
 1001          7     0.00919
 1002          8     0.00670
 1003          6     0.00905
 1004          8     0.01747
 1005          6     0.01706
 1006          6     0.01270
 1007          4     0.01147
 1008          6     0.01105
 1009          9     0.01996
 1010          5     0.01376
 1011          4     0.00716
 1012          7     0.01996
 1013          8     0.00726
 1014          5     0.02102
 1015          6     0.01254
 1016          5     0.00694
 1017          7     0.01021
 1018          2     0.00582
 1019          6     0.00756
 1020          5     0.01474
 1021          7     0.01001
 1022          7     0.01964
 1023          4     0.00683
 1024          6     0.01125
 1025          3     0.00607
 1026          4     0.01421
 1027          9     0.01119
 1028          5     0.01103
 1029          2     0.00841
 1030          6     0.00714
 1031          8     0.01949
 1032          7     0.00670
 1033          2     0.00609
 1034          4     0.01120
 1035          5     0.01771
 1036          6     0.00711
 1037          4     0.00604
 1038          4     0.00636
 1039          5     0.00593
 1040          3     0.00895
 1041          6     0.02010
 1042          5     0.00676
 1043          8     0.02352
 1044          9     0.01047
 1045          3     0.00652
 1046          6     0.00662
 1047          6     0.01227
 1048          2     0.01206
 1049          4     0.00593
 1050          3     0.00572
 1051          5     0.01717
 1052          6     0.02013
 1053          3     0.00582
 1054          3     0.00553
 1055          6     0.02197
 1056          9     0.02496
 1057          4     0.01645
 1058          7     0.00706
 1059          7     0.01650
 1060          6     0.00831
 1061          5     0.00807
 1062          6     0.01310
 1063          6     0.02341
 1064          2     0.00635
 1065          3     0.02057
 1066          6     0.00923
 1067          9     0.01057
 1068          5     0.01825
 1069          9     0.02915
 1070         10     0.02325
 1071          1     0.00611
 1072          4     0.01496
 1073          4     0.00638
 1074          5     0.00638
 1075          5     0.01300
 1076          6     0.01547
 1077          4     0.00793
 1078          4     0.01588
 1079          4     0.00807
 1080          9     0.01233
 1081          9     0.00835
 1082          4     0.00723
 1083          3     0.01120
 1084         10     0.00834
 1085          4     0.00916
 1086          6     0.01341
 1087          5     0.01148
 1088          5     0.01638
 1089          2     0.00580
 1090          7     0.00816
 1091          2     0.01237
 1092          3     0.00617
 1093          8     0.01183
 1094          5     0.00912
 1095          4     0.00911
 1096          8     0.00919
 1097          7     0.02802
 1098          1     0.00600
 1099          4     0.00967
 1100          7     0.01132
 1101          6     0.01115
 1102          7     0.01770
 1103          4     0.00992
 1104          8     0.02504
 1105          5     0.01828
 1106         10     0.01219
 1107          8     0.01230
 1108          9     0.00918
 1109          2     0.00549
 1110          5     0.01358
 1111          5     0.00640
 1112          5     0.01331
 1113          7     0.00824
 1114          4     0.01281
 1115          4     0.00607
 1116          4     0.01565
 1117         10     0.00687
 1118          5     0.02446
 1119          7     0.02732
 1120          6     0.00648
 1121          2     0.00589
 1122          5     0.00658
 1123          3     0.01515
 1124          8     0.01122
 1125          5     0.00608
 1126          2     0.00705
 1127          5     0.02514
 1128          3     0.01100
 1129          6     0.00613
 1130          4     0.00855
 1131          4     0.01393
 1132          9     0.02464
 1133          6     0.01402
 1134          6     0.02248
 1135          2     0.00642
 1136         11     0.01741
 1137          5     0.00941
 1138          5     0.01307
 1139          4     0.00911
 1140          6     0.01132
 1141          6     0.01095
 1142          8     0.02029
 1143          7     0.00962
 1144          2     0.00544
 1145          4     0.01077
 1146          6     0.01190
 1147          6     0.00984
 1148          3     0.01339
 1149          5     0.00996
 1150          4     0.00619
 1151          5     0.01644
 1152          4     0.00602
 1153          5     0.00636
 1154          5     0.01190
 1155          6     0.00597
 1156          4     0.00622
 1157          7     0.01142
 1158          5     0.00848
 1159          4     0.01022
 1160          7     0.01190
 1161          5     0.00642
 1162          4     0.01297
 1163          3     0.00813
 1164          7     0.00614
 1165          6     0.00695
 1166          7     0.00649
 1167          7     0.00861
 1168          7     0.01173
 1169          4     0.00589
 1170          1     0.00578
 1171          4     0.01439
 1172          1     0.00589
 1173          7     0.00597
 1174          5     0.00793
 1175          2     0.00528
 1176          4     0.01649
 1177          2     0.01023
 1178          8     0.01589
 1179          7     0.01296
 1180          7     0.01236
 1181          8     0.00997
 1182          4     0.00624
 1183          2     0.00576
 1184          7     0.01871
 1185          2     0.00617
 1186          3     0.00633
 1187          9     0.01426
 1188          4     0.00805
 1189          6     0.01009
 1190          1     0.01113
 1191          4     0.00724
 1192          3     0.00830
 1193          3     0.02115
 1194          6     0.01156
 1195          7     0.00843
 1196          8     0.00662
 1197          3     0.00639
 1198          3     0.01789
 1199          4     0.04818
 1200          6     0.00657
 1201          5     0.00721
 1202          3     0.00620
 1203          3     0.00646
 1204          5     0.00909
 1205          5     0.00853
 1206          7     0.00889
 1207          7     0.02753
 1208          7     0.01425
 1209          6     0.00913
 1210          3     0.01061
 1211          6     0.00746
 1212          4     0.01461
 1213          4     0.00606
 1214          3     0.00597
 1215          4     0.01641
 1216          8     0.00892
 1217          5     0.01929
 1218          5     0.00667
 1219          2     0.00626
 1220          4     0.01037
 1221          3     0.00628
 1222          4     0.01464
 1223          6     0.00707
 1224          4     0.00859
 1225          5     0.00670
 1226          5     0.00597
 1227          3     0.00621
 1228          2     0.00923
 1229          2     0.00571
 1230          8     0.02085
 1231          3     0.00696
 1232          5     0.00702
 1233          9     0.00681
 1234          9     0.01287
 1235          7     0.01251
 1236          3     0.01091
 1237          2     0.00963
 1238          6     0.00642
 1239          1     0.00610
 1240          3     0.01499
 1241          7     0.01344
 1242          1     0.00634
 1243          4     0.00658
 1244          4     0.00658
 1245          1     0.00588
 1246          8     0.01039
 1247          8     0.00688
 1248          2     0.00583
 1249          2     0.00699
 1250          1     0.00583
 1251          7     0.01100
 1252          5     0.01962
 1253          1     0.00683
 1254          3     0.00583
 1255          2     0.00585
 1256          4     0.00641
 1257          3     0.01879
 1258          4     0.00818
 1259          3     0.01193
 1261          4     0.00596
 1262          2     0.00566
 1263          3     0.00573
 1264          1     0.00541
 1265          2     0.00525
 1266          4     0.01188
 1267          1     0.00565
 1268          6     0.01090
 1269          1     0.00667
 1270          6     0.02604
 1271          1     0.00594
 1272          2     0.01464
 1273          5     0.00647
 1274          1     0.00595
 1275          1     0.00627
 1276          3     0.00566
 1277          4     0.01940
 1278          6     0.01056
 1279          5     0.00632
 1280          4     0.00816
 1281          5     0.00614
 1282          1     0.00537
 1283          4     0.00599
 1284          6     0.01112
 1285          1     0.00540
 1286          6     0.02378
 1287          4     0.00632
 1288          6     0.00587
 1289          1     0.00601
 1291          5     0.01579
 1292          4     0.00622
 1293          1     0.00554
 1294          4     0.01219
 1295          5     0.01120
 1296          3     0.00628
 1297          3     0.01067
 1298          2     0.00599
 1299          2     0.00789
 1300          1     0.00613
 1301          3     0.00630
 1302          3     0.00562
 1303          4     0.01111
 1304          2     0.00691
 1305          5     0.01234
 1306          4     0.01042
 1307          2     0.01473
 1308          3     0.00794
 1309          8     0.01808
 1310          4     0.00652
 1311          7     0.01769
 1312          3     0.00607
 1313          1     0.00575
 1314          1     0.00599
 1315          1     0.00607
 1316          5     0.01077
 1317          5     0.00686
 1318          3     0.00589
 1319          1     0.00575
 1320          3     0.00871
 1321          1     0.01413
 1322          2     0.00591
 1323          1     0.00542
 1324          1     0.00534
 1325          2     0.00595
 1326          3     0.00583
 1327          3     0.00558
 1328          5     0.00587
 1329          4     0.00597
 1330          3     0.00594
 1331          2     0.00863
 1332          3     0.00569
 1333          3     0.00590
 1334          3     0.00554
 1335          1     0.00541
 1336          1     0.01195
 1337          4     0.00614
 1338          1     0.00562
 1339          2     0.00563
 1340          4     0.01161
 1341          3     0.01334
 1342          3     0.01183
 1343          3     0.01168
 1344          3     0.00607
 1345          1     0.00524
 1346          5     0.00560
 1347          2     0.00581
 1348          2     0.01614
 1349          4     0.00619
 1350          1     0.00694
 1351          2     0.00562
 1352          4     0.00916
 1353          2     0.00533
 1354          1     0.00533
 1355          3     0.01360
 1356          2     0.00592
 1357          2     0.00584
 1358          3     0.00908
 1359          2     0.00575
 1360          1     0.00578
 1361          1     0.00544
 1362          2     0.00599
 1363          3     0.01526
 1365          3     0.00595
 1366          5     0.00561
 1367          2     0.00837
 1368          4     0.01215
 1369          1     0.00525
 1370          2     0.00572
 1371          1     0.00503
 1372          2     0.00597
 1373          1     0.00581
 1374          2     0.00580
 1375          2     0.00700
 1376          2     0.00589
 1377          4     0.00579
 1378          2     0.00547
 1379          1     0.01951
 1380          3     0.01890
 1382          1     0.01038
 1383          1     0.00634
 1385          1     0.00593
 1386          4     0.01032
 1387          1     0.00560
 1388          2     0.00554
 1389          3     0.01337
 1391          1     0.00570
 1392          3     0.00991
 1393          5     0.01052
 1394          5     0.01117
 1395          4     0.00800
 1396          1     0.00902
 1397          2     0.00635
 1398          2     0.00568
 1399          2     0.00559
 1400          1     0.00953
 1401          2     0.00539
 1402          1     0.00571
 1403          3     0.01687
 1404          4     0.00614
 1405          2     0.00520
 1406          1     0.01178
 1407          1     0.00568
 1408          2     0.01278
 1409          5     0.00602
 1410          2     0.00910
 1411          2     0.00556
 1412          3     0.00620
 1414          4     0.00915
 1415          1     0.00566
 1416          3     0.00573
 1417          3     0.00810
 1418          2     0.00560
 1420          2     0.02048
 1421          2     0.00889
 1422          3     0.00584
 1423          2     0.01086
 1424          2     0.00624
 1425          3     0.00626
 1426          2     0.00602
 1427          1     0.00612
 1428          1     0.00623
 1431          4     0.01556
 1432          1     0.00605
 1433          1     0.00633
 1434          1     0.00614
 1435          2     0.00611
 1436          4     0.01009
 1438          1     0.00551
 1440          4     0.01266
 1441          2     0.00641
 1442          1     0.00555
 1443          3     0.00608
 1444          4     0.00561
 1447          1     0.00565
 1448          1     0.00526
 1449          1     0.00526
 1450          2     0.00983
 1452          1     0.00602
 1453          2     0.00560
 1454          2     0.00576
 1456          1     0.00907
 1457          1     0.00588
 1458          2     0.00544
 1459          2     0.00553
 1460          4     0.00555
 1461          2     0.01110
 1462          3     0.00710
 1463          4     0.01530
 1464          1     0.00587
 1465          1     0.00924
 1467          1     0.01260
 1468          3     0.01328
 1471          2     0.00608
 1472          2     0.01660
 1473          2     0.00636
 1474          1     0.00609
 1475          2     0.01303
 1476          1     0.00604
 1477          2     0.00629
 1478          3     0.00666
 1479          1     0.00553
 1480          1     0.00565
 1482          4     0.00645
 1483          1     0.00561
 1484          3     0.01219
 1485          1     0.00730
 1486          2     0.01290
 1487          4     0.00899
 1490          2     0.00628
 1491          1     0.00583
 1494          1     0.00588
 1498          1     0.00688
 1499          1     0.00535
 1500          1     0.00520
 1501          2     0.00848
 1502          3     0.00542
 1504          1     0.00561
 1505          1     0.00534
 1506          1     0.00517
 1507          2     0.00865
 1509          1     0.00556
 1510          1     0.00565
 1511          2     0.00563
 1512          1     0.00549
 1513          2     0.06000
 1514          1     0.00607
 1515          2     0.00592
 1517          1     0.00572
 1519          2     0.01502
 1520          1     0.00573
 1521          4     0.01224
 1524          1     0.00823
 1525          5     0.01712
 1526          1     0.00531
 1527          3     0.00530
 1528          3     0.00513
 1530          2     0.00526
 1531          3     0.00895
 1532          2     0.00593
 1534          3     0.00891
 1535          2     0.00584
 1537          1     0.00545
 1539          2     0.00579
 1541          1     0.00587
 1544          3     0.00908
 1546          1     0.00556
 1551          2     0.01141
 1553          1     0.00546
 1555          1     0.00550
 1559          4     0.00636
 1560          1     0.00508
 1561          3     0.00546
 1565          1     0.00487
 1567          1     0.00471
 1568          1     0.01158
 1569          3     0.00686
 1570          2     0.00562
 1571          2     0.00523
 1572          3     0.00824
 1573          1     0.00956
 1574          1     0.00730
 1575          1     0.00578
 1577          2     0.00559
 1578          1     0.00957
 1579          2     0.00595
 1581          1     0.00540
 1583          2     0.00575
 1585          1     0.00896
 1586          1     0.01061
 1587          1     0.00534
 1588          2     0.00556
 1589          1     0.00548
 1590          1     0.00547
 1591          2     0.00569
 1592          2     0.00576
 1594          1     0.00526
 1595          1     0.01112
 1596          2     0.00540
 1597          2     0.01489
 1601          2     0.00633
 1602          2     0.01594
 1603          2     0.00610
 1604          2     0.00542
 1605          1     0.00550
 1611          1     0.00556
 1615          1     0.00548
 1617          1     0.00577
 1621          2     0.00975
 1622          1     0.00599
 1623          1     0.00729
 1624          1     0.00864
 1625          1     0.00664
 1626          1     0.00658
 1628          1     0.00675
 1629          3     0.01208
 1631          1     0.00596
 1633          2     0.00875
 1634          1     0.00556
 1635          2     0.01289
 1636          1     0.00626
 1637          1     0.00897
 1642          2     0.00649
 1644          1     0.00734
 1647          1     0.00958
 1649          1     0.00616
 1650          1     0.00608
 1651          1     0.00576
 1652          2     0.00613
 1653          1     0.00616
 1654          1     0.00627
 1658          1     0.00941
 1659          1     0.00989
 1661          2     0.00607
 1664          1     0.01225
 1668          1     0.00600
 1670          1     0.00593
 1671          2     0.00578
 1672          1     0.00562
 1673          1     0.00546
 1675          1     0.01063
 1676          1     0.00567
 1679          2     0.01322
 1680          1     0.00540
 1681          1     0.00540
 1683          1     0.00549
 1686          1     0.00587
 1687          1     0.00604
 1688          1     0.00575
 1689          1     0.00835
 1690          1     0.00513
 1693          1     0.00505
 1694          1     0.00534
 1695          1     0.00598
 1697          1     0.00589
 1702          1     0.00878
 1704          1     0.00560
 1706          2     0.00587
 1707          1     0.00989
 1708          1     0.00572
 1711          1     0.00591
 1712          2     0.01522
 1714          1     0.00593
 1715          1     0.00547
 1717          1     0.00571
 1718          1     0.00570
 1721          1     0.00543
 1726          2     0.00620
 1729          2     0.01153
 1735          1     0.00916
 1740          1     0.01148
 1741          1     0.00627
 1745          1     0.00859
 1749          1     0.00570
 1750          1     0.00577
 1753          1     0.00567
 1762          1     0.00553
 1763          1     0.00572
 1765          3     0.00620
 1771          2     0.00885
 1772          1     0.00579
 1773          2     0.01058
 1775          1     0.00617
 1778          1     0.00585
 1779          1     0.00747
 1784          1     0.00653
 1785          1     0.00621
 1786          2     0.00608
 1789          1     0.00592
 1790          1     0.00594
 1791          1     0.00578
 1793          1     0.00589
 1796          1     0.00591
 1798          1     0.00595
 1799          1     0.00591
 1805          1     0.00620
 1818          1     0.00579
 1819          2     0.00564
 1826          1     0.00592
 1832          1     0.00564
 1846          1     0.00546
 1847          1     0.00543
 1848          1     0.00532
 1849          2     0.00559
 1851          1     0.00565
 1857          1     0.00560
 1860          1     0.00585
 1866          1     0.00575
 1871          1     0.01268
 1879          1     0.00549
 1883          1     0.00564
 1888          2     0.00951
 1901          2     0.00595
 1902          1     0.00553
 1907          1     0.00574
 1908          1     0.00556
 1914          1     0.00556
 1944          1     0.00975
 1950          1     0.00595
 1958          1     0.00568
 1961          1     0.00643
 2036          1     0.00597
 2044          1     0.00650
 2116          1     0.01061
 2175          1     0.00653
 2269          1     0.01007
 2318          1     0.01614
 2365          1     0.00643
 2375          1     0.01116
 2510          1     0.00675
 2518          1     0.00626
 2555          1     0.00564
 2569          1     0.00518
took 1390 iterations
Trial Time:          0.03996
    0          1     0.01602
   59          1     0.00542
took 2 iterations
Trial Time:          0.00050
    0          1     0.01661
  127          1     0.00543
took 2 iterations
Trial Time:          0.00049
    0          1     0.02646
   63          1     0.01835
  101          1     0.00627
  107          1     0.00564
  111          1     0.02087
  126          1     0.01020
  182          1     0.01201
  184          2     0.00703
  187          1     0.00589
  188          1     0.00602
  196          1     0.00552
  204          1     0.00962
  205          1     0.00591
  231          1     0.00683
  238          1     0.00656
  250          1     0.00622
  318          1     0.00575
  322          1     0.00636
  341          1     0.00554
took 19 iterations
Trial Time:          0.00097
    0          1     0.01523
   15          1     0.00579
took 2 iterations
Trial Time:          0.00050
    0          1     0.02093
   21          1     0.04476
   24          1     0.01523
   32          1     0.03538
   34          1     0.01609
   46          1     0.01673
   48          1     0.04413
   53          1     0.00644
   55          1     0.01540
   60          2     0.01852
   63          1     0.02624
   65          1     0.00649
   66          2     0.01839
   67          3     0.02402
   68          2     0.02052
   69          1     0.01602
   70          1     0.01068
   71          1     0.00611
   72          1     0.01130
   73          1     0.02095
   74          3     0.01882
   76          1     0.00911
   78          1     0.01440
   79          1     0.00859
   81          2     0.01007
   82          1     0.00605
   83          1     0.00632
   86          1     0.00623
   87          1     0.00608
   88          1     0.00601
   89          1     0.01248
   91          1     0.01952
   92          2     0.01261
   93          1     0.00810
   95          2     0.01139
   97          1     0.01026
   98          1     0.01652
   99          1     0.01736
  100          1     0.00843
  101          1     0.00922
  102          1     0.00648
  104          3     0.01116
  106          3     0.00665
  108          1     0.00608
  110          1     0.00596
  111          2     0.01715
  112          1     0.00643
  113          1     0.00588
  114          2     0.04477
  116          2     0.00867
  119          2     0.00806
  121          3     0.01143
  122          2     0.00819
  124          1     0.00565
  125          2     0.00754
  126          2     0.03476
  127          2     0.00680
  128          2     0.00645
  130          1     0.00547
  131          2     0.01326
  132          2     0.00596
  133          5     0.02408
  134          4     0.00895
  135          1     0.02798
  136          2     0.02192
  137          1     0.01710
  138          3     0.00841
  139          1     0.01177
  140          3     0.02715
  141          4     0.02644
  142          1     0.00634
  143          1     0.00917
  144          3     0.02218
  145          2     0.00655
  146          3     0.02435
  147          3     0.01220
  148          3     0.00893
  149          1     0.02154
  150          1     0.00629
  151          2     0.00872
  152          1     0.00945
  153          1     0.00583
  154          4     0.01358
  155          1     0.00559
  156          6     0.01393
  157          5     0.01394
  158          3     0.01353
  159          3     0.02130
  160          8     0.03512
  161          2     0.00653
  162          2     0.01730
  163          1     0.00572
  164          2     0.00636
  165          4     0.02579
  166          4     0.01792
  167          3     0.01626
  168          3     0.02286
  169          3     0.01961
  170          3     0.00691
  171          1     0.00621
  172          1     0.00935
  173          5     0.01445
  174          3     0.01717
  175          3     0.00974
  176          5     0.01218
  177          4     0.01916
  178          2     0.00634
  179          5     0.01727
  180          5     0.00649
  181          3     0.01188
  182          3     0.01082
  184          5     0.02942
  185          4     0.01743
  186          6     0.01597
  187          4     0.01436
  188          5     0.01641
  189          4     0.01340
  190          4     0.05257
  191          1     0.00922
  193          6     0.02658
  194          3     0.00720
  195          2     0.00776
  196          4     0.00643
  197          2     0.00858
  198          1     0.00848
  199          2     0.01117
  200          8     0.01691
  201          2     0.01471
  202          2     0.01280
  203          7     0.02771
  204          7     0.01278
  205          3     0.00807
  206          4     0.00837
  207          3     0.01082
  208          4     0.00957
  209          5     0.02493
  210          8     0.01991
  211          6     0.02391
  212          4     0.01309
  213          4     0.01823
  214          5     0.01191
  215          9     0.04070
  216          6     0.01130
  217          5     0.01045
  218          5     0.01745
  219          6     0.01700
  220          7     0.02194
  221          6     0.02092
  222          3     0.00739
  223          6     0.02260
  224          2     0.01653
  225          3     0.02011
  226          5     0.00804
  227          3     0.02465
  228          4     0.01354
  229          7     0.01670
  230         13     0.02932
  231          7     0.01710
  232          4     0.00713
  233          5     0.02071
  234          7     0.02027
  235          3     0.00791
  236          6     0.01500
  237          3     0.00829
  238          6     0.01154
  239          6     0.01639
  240          3     0.01059
  241          6     0.01417
  242          8     0.04302
  243          8     0.04324
  244          9     0.01257
  245          9     0.02781
  246          6     0.00698
  247         13     0.03998
  248          3     0.01585
  249          8     0.01814
  250          5     0.01181
  251          8     0.00751
  252          8     0.01469
  253         10     0.01767
  254          4     0.00817
  255          5     0.01085
  256          6     0.02295
  257          8     0.02371
  258          9     0.04811
  259          9     0.02034
  260         12     0.03239
  261          8     0.01454
  262          3     0.00685
  263          6     0.01997
  264          2     0.00600
  265         11     0.02288
  266          7     0.01904
  267         11     0.01480
  268          9     0.02912
  269          7     0.00914
  270          8     0.00674
  271          6     0.01973
  272          8     0.04254
  273         11     0.02119
  274          8     0.02559
  275          5     0.01175
  276          7     0.04338
  277          6     0.01483
  278         10     0.03685
  279          4     0.01160
  280         10     0.03105
  281         12     0.02745
  282          5     0.00673
  283         12     0.01450
  284          8     0.00637
  285          6     0.01908
  286          5     0.00669
  287          8     0.02547
  288          4     0.02298
  289          8     0.01536
  290         12     0.06157
  291          8     0.02752
  292         15     0.02148
  293          8     0.00802
  294          9     0.03735
  295          7     0.00715
  296          8     0.02161
  297         10     0.02423
  298          8     0.01936
  299         10     0.04845
  300          8     0.01517
  301          6     0.02577
  302          5     0.01014
  303         14     0.04416
  304          7     0.01063
  305          7     0.01561
  306          8     0.01942
  307          8     0.01439
  308         12     0.02353
  309         13     0.03135
  310          7     0.01435
  311         15     0.02481
  312          6     0.01353
  313         12     0.01906
  314         11     0.02376
  315          8     0.02505
  316          9     0.02113
  317          6     0.00774
  318          7     0.01654
  319         10     0.01968
  320         11     0.02043
  321          9     0.01873
  322         13     0.02418
  323         10     0.01604
  324          8     0.02269
  325         11     0.01204
  326         16     0.06163
  327         18     0.01613
  328         12     0.03337
  329          7     0.01688
  330         12     0.01761
  331          7     0.02688
  332         13     0.02736
  333         10     0.03662
  334          9     0.01477
  335         12     0.01190
  336         12     0.01325
  337         11     0.00840
  338          9     0.01303
  339         11     0.02595
  340          9     0.02354
  341         12     0.02315
  342          8     0.02091
  343         12     0.02349
  344         17     0.01146
  345         17     0.03112
  346          7     0.00782
  347         13     0.02723
  348         12     0.02135
  349         17     0.02540
  350          9     0.01709
  351         12     0.01074
  352         15     0.02272
  353         12     0.00984
  354         15     0.03999
  355         18     0.02938
  356         16     0.01597
  357         15     0.03642
  358         10     0.01826
  359          8     0.00921
  360         19     0.02941
  361         15     0.02908
  362         18     0.01885
  363         12     0.01316
  364         15     0.02310
  365         13     0.01291
  366         26     0.02710
  367         22     0.01880
  368         16     0.02472
  369         12     0.04306
  370         19     0.03254
  371         19     0.02674
  372         21     0.02231
  373         16     0.02820
  374         14     0.02247
  375         20     0.03450
  376         14     0.02129
  377         17     0.02601
  378          7     0.01410
  379         13     0.02986
  380         20     0.01933
  381         11     0.01145
  382         11     0.01315
  383         14     0.02982
  384         15     0.01966
  385         16     0.02302
  386         19     0.02095
  387         23     0.04676
  388         26     0.03233
  389         18     0.04762
  390         18     0.02236
  391         13     0.01389
  392         19     0.02566
  393         18     0.01927
  394         16     0.01579
  395         13     0.01817
  396         19     0.02453
  397         26     0.02573
  398         11     0.02430
  399         13     0.03233
  400         20     0.01437
  401         17     0.02854
  402         17     0.02327
  403         24     0.03599
  404         20     0.01756
  405         23     0.01790
  406         20     0.03443
  407         20     0.05255
  408         16     0.02827
  409         16     0.04425
  410         22     0.03927
  411         17     0.01377
  412         18     0.04228
  413         17     0.03916
  414         26     0.02231
  415         20     0.03122
  416         30     0.02761
  417         24     0.05648
  418         23     0.02409
  419         22     0.01789
  420         31     0.03034
  421         18     0.02410
  422         25     0.05219
  423         23     0.02380
  424         23     0.03250
  425         25     0.03288
  426         22     0.04455
  427         16     0.02974
  428         24     0.02930
  429         18     0.03463
  430         24     0.03015
  431         21     0.03442
  432         20     0.03345
  433         18     0.02147
  434         34     0.04726
  435         28     0.02667
  436         20     0.03128
  437         22     0.02938
  438         24     0.01890
  439         29     0.04044
  440         21     0.03387
  441         27     0.02057
  442         25     0.04073
  443         25     0.01532
  444         19     0.04090
  445         34     0.03653
  446         22     0.03117
  447         21     0.03152
  448         21     0.02088
  449         27     0.03293
  450         29     0.03231
  451         28     0.03506
  452         18     0.01989
  453         25     0.02077
  454         29     0.04377
  455         31     0.02346
  456         24     0.02628
  457         41     0.06546
  458         30     0.02953
  459         28     0.02297
  460         26     0.02588
  461         25     0.01535
  462         30     0.05319
  463         26     0.02214
  464         21     0.02283
  465         35     0.02470
  466         31     0.03071
  467         27     0.01723
  468         31     0.04598
  469         32     0.05583
  470         30     0.01835
  471         26     0.04765
  472         25     0.06723
  473         25     0.01952
  474         26     0.02569
  475         18     0.02069
  476         35     0.05334
  477         41     0.04450
  478         25     0.03292
  479         20     0.03054
  480         32     0.03485
  481         20     0.03312
  482         30     0.03298
  483         35     0.03153
  484         24     0.01409
  485         29     0.02824
  486         29     0.03230
  487         38     0.02219
  488         29     0.03859
  489         24     0.02821
  490         29     0.01807
  491         36     0.03702
  492         16     0.01337
  493         19     0.01435
  494         27     0.03255
  495         32     0.01746
  496         21     0.00991
  497         23     0.04749
  498         28     0.02228
  499         31     0.02316
  500         27     0.01551
  501         33     0.02575
  502         39     0.06725
  503         33     0.03210
  504         34     0.03369
  505         36     0.02940
  506         31     0.02912
  507         26     0.08414
  508         32     0.02093
  509         34     0.03266
  510         33     0.03696
  511         34     0.03200
  512         34     0.01905
  513         33     0.03914
  514         34     0.02466
  515         31     0.06498
  516         33     0.03387
  517         36     0.03398
  518         32     0.03483
  519         41     0.05437
  520         27     0.02313
  521         37     0.02688
  522         43     0.03398
  523         31     0.02317
  524         39     0.04151
  525         29     0.02599
  526         27     0.03461
  527         33     0.03567
  528         33     0.02823
  529         56     0.05469
  530         31     0.04444
  531         33     0.02833
  532         34     0.04362
  533         39     0.04953
  534         36     0.03634
  535         33     0.02335
  536         26     0.01549
  537         44     0.04436
  538         30     0.02109
  539         35     0.03882
  540         46     0.05019
  541         33     0.05208
  542         31     0.03161
  543         34     0.05585
  544         38     0.04564
  545         29     0.03344
  546         38     0.02428
  547         35     0.05466
  548         42     0.02642
  549         33     0.01313
  550         38     0.03831
  551         36     0.03082
  552         31     0.01729
  553         38     0.07538
  554         42     0.05322
  555         37     0.02672
  556         38     0.03645
  557         46     0.05128
  558         45     0.04970
  559         35     0.03906
  560         42     0.03621
  561         42     0.03965
  562         34     0.02032
  563         38     0.02801
  564         28     0.04254
  565         35     0.02794
  566         43     0.03654
  567         45     0.04087
  568         42     0.04367
  569         33     0.03583
  570         41     0.02787
  571         55     0.06037
  572         44     0.04503
  573         38     0.04521
  574         48     0.05547
  575         40     0.04504
  576         54     0.03244
  577         45     0.04318
  578         54     0.04730
  579         44     0.04098
  580         53     0.03051
  581         40     0.03361
  582         54     0.02472
  583         47     0.06027
  584         41     0.02839
  585         38     0.02653
  586         35     0.03950
  587         44     0.03985
  588         51     0.05220
  589         39     0.03778
  590         44     0.02739
  591         44     0.04928
  592         46     0.04009
  593         38     0.03210
  594         48     0.02659
  595         45     0.03513
  596         42     0.02804
  597         45     0.03043
  598         45     0.04046
  599         44     0.03423
  600         39     0.02472
  601         46     0.02405
  602         45     0.02964
  603         46     0.03778
  604         47     0.02925
  605         58     0.03476
  606         37     0.03247
  607         50     0.03399
  608         46     0.02647
  609         51     0.03597
  610         40     0.01923
  611         39     0.03551
  612         47     0.03823
  613         50     0.06817
  614         55     0.03452
  615         46     0.02269
  616         49     0.06541
  617         53     0.05865
  618         53     0.03601
  619         32     0.03607
  620         54     0.05075
  621         46     0.03435
  622         46     0.03516
  623         40     0.02293
  624         48     0.04147
  625         58     0.04295
  626         56     0.04523
  627         59     0.02321
  628         60     0.03093
  629         42     0.02319
  630         45     0.03262
  631         42     0.02567
  632         52     0.04003
  633         52     0.04425
  634         41     0.04348
  635         52     0.03911
  636         60     0.03244
  637         49     0.02263
  638         43     0.02291
  639         46     0.03342
  640         48     0.02537
  641         50     0.03387
  642         47     0.07475
  643         54     0.04457
  644         50     0.05808
  645         46     0.03672
  646         47     0.03245
  647         44     0.02169
  648         58     0.02229
  649         40     0.02348
  650         51     0.03674
  651         55     0.03765
  652         61     0.03882
  653         49     0.05567
  654         54     0.03158
  655         61     0.06498
  656         58     0.03898
  657         52     0.03713
  658         44     0.02444
  659         46     0.04118
  660         53     0.04062
  661         42     0.02369
  662         46     0.03565
  663         62     0.03805
  664         47     0.03392
  665         46     0.04392
  666         55     0.05484
  667         60     0.03682
  668         60     0.04844
  669         47     0.03304
  670         53     0.02536
  671         52     0.03494
  672         55     0.03586
  673         62     0.06138
  674         69     0.05251
  675         43     0.05477
  676         52     0.04726
  677         48     0.03433
  678         60     0.04848
  679         50     0.03941
  680         59     0.02559
  681         51     0.03044
  682         53     0.03450
  683         49     0.02886
  684         65     0.04578
  685         56     0.04095
  686         57     0.03142
  687         37     0.03574
  688         55     0.04177
  689         65     0.05370
  690         61     0.02563
  691         58     0.02612
  692         45     0.01965
  693         55     0.03506
  694         65     0.03052
  695         67     0.04321
  696         46     0.02906
  697         47     0.03935
  698         51     0.03731
  699         48     0.02701
  700         53     0.04856
  701         56     0.02590
  702         50     0.03528
  703         67     0.04771
  704         53     0.03812
  705         62     0.04561
  706         63     0.05657
  707         57     0.04066
  708         47     0.03678
  709         54     0.04439
  710         49     0.02975
  711         51     0.05053
  712         58     0.03140
  713         54     0.04090
  714         58     0.02810
  715         56     0.03599
  716         50     0.09767
  717         47     0.06046
  718         55     0.03742
  719         68     0.03746
  720         41     0.02565
  721         56     0.03439
  722         51     0.02625
  723         45     0.04229
  724         63     0.05062
  725         52     0.04367
  726         48     0.04350
  727         58     0.03975
  728         52     0.02519
  729         50     0.04953
  730         54     0.02991
  731         53     0.03814
  732         50     0.05129
  733         62     0.02855
  734         63     0.03545
  735         66     0.03460
  736         58     0.03923
  737         55     0.03426
  738         71     0.04225
  739         61     0.03320
  740         45     0.01319
  741         60     0.03786
  742         54     0.02467
  743         51     0.03781
  744         58     0.05528
  745         62     0.04644
  746         48     0.03791
  747         55     0.02831
  748         57     0.02953
  749         54     0.02881
  750         64     0.03777
  751         53     0.03475
  752         48     0.03186
  753         56     0.05086
  754         57     0.02819
  755         57     0.03367
  756         57     0.03917
  757         51     0.03996
  758         51     0.02872
  759         51     0.04199
  760         51     0.02503
  761         47     0.02662
  762         60     0.05091
  763         56     0.03525
  764         56     0.05333
  765         54     0.05376
  766         50     0.05131
  767         63     0.02733
  768         51     0.02939
  769         63     0.02904
  770         59     0.05160
  771         58     0.02810
  772         45     0.02652
  773         56     0.05814
  774         65     0.05443
  775         52     0.02342
  776         44     0.01761
  777         57     0.04784
  778         61     0.03163
  779         67     0.03690
  780         72     0.03335
  781         59     0.03207
  782         62     0.05914
  783         34     0.03933
  784         56     0.02590
  785         51     0.02801
  786         58     0.02752
  787         51     0.03159
  788         67     0.03518
  789         45     0.03625
  790         55     0.02426
  791         38     0.02645
  792         61     0.02961
  793         43     0.03245
  794         39     0.01187
  795         52     0.02836
  796         64     0.05081
  797         49     0.03704
  798         44     0.03370
  799         37     0.02825
  800         58     0.04029
  801         50     0.03119
  802         33     0.02618
  803         52     0.04771
  804         71     0.03241
  805         47     0.04652
  806         51     0.03878
  807         59     0.03797
  808         54     0.02673
  809         55     0.02904
  810         49     0.04593
  811         49     0.02851
  812         43     0.02310
  813         55     0.04920
  814         52     0.02465
  815         50     0.03034
  816         59     0.04619
  817         46     0.02550
  818         54     0.03918
  819         57     0.02551
  820         53     0.04804
  821         66     0.03673
  822         47     0.02850
  823         57     0.02624
  824         54     0.04659
  825         43     0.02554
  826         54     0.03457
  827         64     0.05081
  828         53     0.03456
  829         77     0.03516
  830         49     0.02596
  831         56     0.03155
  832         39     0.03293
  833         58     0.06162
  834         50     0.03997
  835         46     0.02565
  836         57     0.03741
  837         58     0.04893
  838         56     0.02799
  839         55     0.02683
  840         59     0.03210
  841         70     0.02361
  842         58     0.04531
  843         52     0.02513
  844         50     0.04646
  845         54     0.02981
  846         52     0.04310
  847         49     0.02136
  848         52     0.02580
  849         43     0.02346
  850         55     0.04515
  851         49     0.03351
  852         66     0.03536
  853         44     0.02503
  854         70     0.04516
  855         55     0.02441
  856         52     0.03492
  857         43     0.03638
  858         51     0.04381
  859         60     0.03516
  860         53     0.02934
  861         55     0.03926
  862         51     0.02131
  863         51     0.03131
  864         45     0.02390
  865         49     0.03465
  866         42     0.03552
  867         54     0.02086
  868         39     0.01967
  869         50     0.02477
  870         55     0.03067
  871         51     0.04911
  872         44     0.03401
  873         43     0.03191
  874         46     0.02842
  875         48     0.03949
  876         53     0.03810
  877         47     0.03003
  878         37     0.02147
  879         52     0.03461
  880         48     0.03492
  881         53     0.04101
  882         46     0.02540
  883         47     0.03009
  884         54     0.03094
  885         59     0.03175
  886         51     0.03316
  887         40     0.02735
  888         54     0.02071
  889         54     0.04951
  890         49     0.03089
  891         47     0.03210
  892         53     0.02332
  893         68     0.06122
  894         52     0.03156
  895         63     0.02339
  896         51     0.03910
  897         57     0.04861
  898         53     0.04166
  899         57     0.02173
  900         66     0.03164
  901         50     0.02174
  902         50     0.01511
  903         41     0.02247
  904         58     0.04621
  905         42     0.01956
  906         47     0.03497
  907         66     0.03519
  908         50     0.02809
  909         47     0.02457
  910         54     0.03809
  911         57     0.02681
  912         49     0.04464
  913         53     0.02302
  914         53     0.02561
  915         38     0.03383
  916         41     0.03525
  917         35     0.02010
  918         41     0.02182
  919         47     0.02726
  920         44     0.04459
  921         45     0.02761
  922         43     0.02507
  923         49     0.01692
  924         46     0.03565
  925         43     0.02457
  926         39     0.02451
  927         48     0.02223
  928         56     0.04318
  929         42     0.02762
  930         62     0.02714
  931         35     0.02127
  932         45     0.01876
  933         60     0.03535
  934         41     0.03620
  935         48     0.03930
  936         49     0.03572
  937         47     0.02461
  938         40     0.01874
  939         62     0.03154
  940         42     0.01921
  941         51     0.03293
  942         53     0.04381
  943         52     0.03180
  944         46     0.02807
  945         49     0.03681
  946         56     0.02238
  947         48     0.03972
  948         52     0.03445
  949         52     0.03535
  950         54     0.02812
  951         53     0.02698
  952         63     0.03430
  953         35     0.02592
  954         57     0.03566
  955         54     0.02015
  956         47     0.04174
  957         42     0.03559
  958         45     0.03351
  959         51     0.02587
  960         43     0.02251
  961         42     0.02897
  962         49     0.03276
  963         45     0.02518
  964         52     0.02781
  965         30     0.01913
  966         43     0.03245
  967         49     0.02614
  968         52     0.02965
  969         53     0.04740
  970         47     0.02899
  971         53     0.02765
  972         49     0.02609
  973         51     0.04340
  974         45     0.02970
  975         43     0.02289
  976         47     0.02385
  977         40     0.02507
  978         38     0.03843
  979         52     0.01694
  980         43     0.03465
  981         51     0.03383
  982         37     0.01474
  983         39     0.02521
  984         42     0.02932
  985         43     0.02997
  986         37     0.01637
  987         32     0.01930
  988         36     0.01842
  989         41     0.02413
  990         50     0.02800
  991         36     0.01610
  992         29     0.02594
  993         50     0.01956
  994         41     0.01916
  995         51     0.01930
  996         40     0.04511
  997         34     0.01896
  998         44     0.01480
  999         59     0.02139
 1000         48     0.03590
 1001         39     0.01803
 1002         42     0.02617
 1003         38     0.02040
 1004         32     0.02564
 1005         31     0.02047
 1006         44     0.01935
 1007         33     0.01684
 1008         38     0.02398
 1009         40     0.02811
 1010         37     0.01686
 1011         42     0.02088
 1012         31     0.02088
 1013         44     0.02650
 1014         41     0.02402
 1015         30     0.02964
 1016         37     0.02339
 1017         42     0.02356
 1018         40     0.02550
 1019         47     0.01876
 1020         30     0.02230
 1021         38     0.02746
 1022         29     0.01685
 1023         41     0.02511
 1024         26     0.02209
 1025         29     0.01313
 1026         31     0.02635
 1027         50     0.01814
 1028         49     0.02671
 1029         43     0.03007
 1030         44     0.02079
 1031         43     0.02457
 1032         41     0.02408
 1033         40     0.02259
 1034         32     0.02355
 1035         34     0.01920
 1036         30     0.01719
 1037         42     0.03144
 1038         29     0.01875
 1039         30     0.01564
 1040         32     0.02531
 1041         36     0.02538
 1042         38     0.02227
 1043         33     0.03488
 1044         38     0.02275
 1045         21     0.02468
 1046         38     0.02816
 1047         37     0.02981
 1048         36     0.02934
 1049         25     0.02388
 1050         34     0.02677
 1051         33     0.03528
 1052         30     0.02113
 1053         32     0.02051
 1054         44     0.01620
 1055         31     0.02120
 1056         38     0.01440
 1057         36     0.03814
 1058         31     0.03028
 1059         44     0.02514
 1060         35     0.02095
 1061         36     0.03220
 1062         43     0.01946
 1063         34     0.01834
 1064         24     0.02220
 1065         24     0.01551
 1066         26     0.02091
 1067         32     0.01880
 1068         27     0.02001
 1069         29     0.01829
 1070         38     0.03488
 1071         43     0.04676
 1072         34     0.02993
 1073         25     0.02875
 1074         31     0.01096
 1075         34     0.02376
 1076         33     0.02185
 1077         48     0.03968
 1078         40     0.02020
 1079         39     0.02676
 1080         34     0.02845
 1081         32     0.02611
 1082         33     0.01907
 1083         28     0.02910
 1084         40     0.01131
 1085         30     0.02502
 1086         37     0.02876
 1087         32     0.01772
 1088         35     0.01850
 1089         35     0.01758
 1090         30     0.01782
 1091         35     0.02767
 1092         20     0.01852
 1093         33     0.01566
 1094         28     0.01865
 1095         36     0.01817
 1096         44     0.03216
 1097         47     0.01832
 1098         32     0.02785
 1099         28     0.02505
 1100         37     0.01681
 1101         25     0.01791
 1102         35     0.01678
 1103         29     0.02060
 1104         27     0.01753
 1105         28     0.01685
 1106         29     0.02735
 1107         35     0.01735
 1108         27     0.03039
 1109         24     0.03493
 1110         38     0.02908
 1111         28     0.02095
 1112         27     0.02259
 1113         42     0.01311
 1114         24     0.00958
 1115         34     0.02200
 1116         32     0.02271
 1117         30     0.02174
 1118         37     0.02912
 1119         27     0.02334
 1120         24     0.01745
 1121         18     0.01288
 1122         26     0.02249
 1123         26     0.02133
 1124         24     0.01849
 1125         30     0.03079
 1126         35     0.03468
 1127         37     0.03672
 1128         27     0.02474
 1129         26     0.01682
 1130         31     0.01490
 1131         21     0.01415
 1132         27     0.01824
 1133         29     0.01272
 1134         32     0.02309
 1135         34     0.01858
 1136         32     0.02549
 1137         25     0.01740
 1138         28     0.02701
 1139         24     0.01341
 1140         33     0.03227
 1141         27     0.02607
 1142         25     0.07943
 1143         24     0.02065
 1144         21     0.01419
 1145         27     0.03452
 1146         27     0.01571
 1147         39     0.03600
 1148         25     0.03337
 1149         17     0.01877
 1150         24     0.01939
 1151         32     0.02431
 1152         24     0.02355
 1153         24     0.01646
 1154         29     0.01297
 1155         26     0.03868
 1156         16     0.01044
 1157         31     0.01689
 1158         29     0.01748
 1159         26     0.02102
 1160         29     0.02895
 1161         23     0.01930
 1162         23     0.01234
 1163         29     0.01550
 1164         33     0.03402
 1165         27     0.02650
 1166         17     0.01522
 1167         38     0.01934
 1168         31     0.02989
 1169         24     0.01857
 1170         29     0.01568
 1171         23     0.01205
 1172         26     0.02803
 1173         18     0.01282
 1174         25     0.03668
 1175         30     0.01670
 1176         20     0.01860
 1177         30     0.01157
 1178         20     0.01415
 1179         26     0.01093
 1180         23     0.02029
 1181         20     0.01036
 1182         30     0.00965
 1183         20     0.02445
 1184         27     0.02545
 1185         21     0.01511
 1186         16     0.01411
 1187         24     0.01613
 1188         21     0.01743
 1189         25     0.01653
 1190         30     0.01884
 1191         27     0.02709
 1192         21     0.00850
 1193         22     0.01690
 1194         20     0.01466
 1195         17     0.03593
 1196         24     0.02229
 1197         23     0.01656
 1198         20     0.02126
 1199         24     0.01850
 1200         18     0.02253
 1201         22     0.02978
 1202         18     0.01101
 1203         22     0.01521
 1204         25     0.02128
 1205         25     0.02960
 1206         24     0.02273
 1207         20     0.01203
 1208         24     0.01444
 1209         26     0.02883
 1210         26     0.01998
 1211         22     0.04582
 1212         20     0.01925
 1213         25     0.02125
 1214         25     0.03605
 1215         21     0.01639
 1216         23     0.01493
 1217         25     0.01488
 1218         16     0.01805
 1219         16     0.01108
 1220         26     0.01825
 1221         20     0.01278
 1222         27     0.02419
 1223         25     0.01660
 1224         31     0.02174
 1225         10     0.01654
 1226         21     0.01557
 1227         24     0.01371
 1228         21     0.02338
 1229         23     0.01863
 1230         22     0.01625
 1231         19     0.01326
 1232         21     0.01934
 1233         18     0.00843
 1234         21     0.02516
 1235         21     0.01745
 1236         23     0.03357
 1237         26     0.01484
 1238         24     0.01974
 1239         12     0.03466
 1240         26     0.01560
 1241         18     0.02086
 1242         25     0.02542
 1243         16     0.01243
 1244         21     0.03666
 1245         23     0.01502
 1246         13     0.00872
 1247         23     0.02620
 1248         12     0.01066
 1249         22     0.01257
 1250         18     0.01790
 1251         24     0.01798
 1252         18     0.01994
 1253         34     0.03012
 1254         25     0.01627
 1255         25     0.01587
 1256         10     0.01471
 1257         15     0.01498
 1258         27     0.02469
 1259         23     0.02622
 1260         16     0.01055
 1261         16     0.01796
 1262         16     0.01203
 1263         12     0.01963
 1264         22     0.01573
 1265         16     0.02192
 1266         19     0.03764
 1267         21     0.01955
 1268         28     0.02305
 1269         13     0.01390
 1270         18     0.01991
 1271         19     0.01374
 1272         24     0.02605
 1273         18     0.00909
 1274         12     0.02006
 1275         17     0.02044
 1276         17     0.01334
 1277         21     0.03741
 1278         12     0.01872
 1279         14     0.00817
 1280         19     0.01357
 1281         17     0.02457
 1282         15     0.01786
 1283         24     0.02961
 1284         18     0.01878
 1285         22     0.01616
 1286         14     0.00957
 1287         20     0.02651
 1288         22     0.01587
 1289         19     0.01297
 1290         23     0.02476
 1291         18     0.01168
 1292         22     0.01458
 1293         22     0.02075
 1294         13     0.01242
 1295         22     0.01174
 1296         27     0.02445
 1297         10     0.01604
 1298         20     0.01811
 1299         11     0.00726
 1300         18     0.00922
 1301         23     0.01500
 1302         22     0.01982
 1303         18     0.01457
 1304         15     0.00925
 1305          8     0.01115
 1306         16     0.01337
 1307         16     0.02608
 1308         16     0.01184
 1309         17     0.01506
 1310         22     0.01824
 1311         19     0.01659
 1312         14     0.01767
 1313         24     0.02059
 1314         22     0.02279
 1315         14     0.01238
 1316         19     0.01668
 1317         21     0.01426
 1318         21     0.02484
 1319         13     0.00866
 1320         23     0.02113
 1321         26     0.01089
 1322         17     0.01454
 1323         15     0.01132
 1324         11     0.00965
 1325         18     0.01125
 1326         20     0.01760
 1327         11     0.00794
 1328         24     0.01310
 1329          7     0.00969
 1330          6     0.00851
 1331         12     0.01214
 1332         20     0.02167
 1333         14     0.01109
 1334         13     0.01327
 1335         15     0.01744
 1336         12     0.00968
 1337         16     0.02239
 1338         18     0.01346
 1339         13     0.02753
 1340         10     0.01596
 1341         14     0.00956
 1342         15     0.00991
 1343         15     0.01151
 1344         14     0.01368
 1345         17     0.01167
 1346         14     0.01868
 1347         14     0.00831
 1348         21     0.01275
 1349         15     0.01473
 1350         20     0.01099
 1351         14     0.01082
 1352          9     0.00892
 1353         15     0.01109
 1354          8     0.01695
 1355         12     0.01167
 1356          8     0.00676
 1357         13     0.00755
[...]
 2332          1     0.00535
 2336          1     0.00905
 2337          1     0.01305
 2338          3     0.00642
 2339          1     0.00581
 2340          2     0.00644
 2341          1     0.00563
 2342          1     0.00594
 2343          1     0.00571
 2344          2     0.00911
 2347          1     0.00547
 2348          1     0.00526
 2349          3     0.00588
 2350          2     0.00547
 2351          1     0.00544
 2352          2     0.02321
 2354          2     0.00632
 2360          1     0.00605
 2361          2     0.00810
 2362          2     0.00574
 2364          1     0.00533
 2367          2     0.00569
 2369          1     0.00552
 2370          2     0.00553
 2373          1     0.01154
 2375          2     0.00602
 2377          1     0.01342
 2379          2     0.00662
 2381          1     0.00631
 2383          1     0.00624
 2386          2     0.01844
 2387          2     0.00822
 2388          2     0.00629
 2389          3     0.01170
 2392          1     0.00584
 2394          1     0.00584
 2396          1     0.00600
 2398          2     0.00597
 2399          1     0.00549
 2400          3     0.02043
 2401          1     0.00635
 2402          1     0.01640
 2404          2     0.00668
 2405          2     0.00572
 2406          3     0.00603
 2408          2     0.01170
 2410          1     0.01415
 2411          2     0.01421
 2412          3     0.00662
 2415          2     0.00611
 2417          1     0.00535
 2418          1     0.00581
 2421          2     0.00928
 2422          1     0.01007
 2423          1     0.00944
 2424          2     0.00993
 2426          1     0.00572
 2427          1     0.00580
 2429          1     0.01156
 2430          3     0.01031
 2431          1     0.00555
 2434          1     0.00660
 2435          1     0.00607
 2437          2     0.00566
 2440          1     0.00540
 2441          1     0.00574
 2442          2     0.00626
 2447          2     0.00620
 2449          1     0.01300
 2450          1     0.00574
 2451          1     0.01639
 2452          2     0.00956
 2453          1     0.00532
 2454          4     0.00545
 2457          1     0.00570
 2458          2     0.00657
 2460          2     0.00526
 2462          2     0.00557
 2463          1     0.00560
 2464          2     0.00555
 2466          1     0.00535
 2467          3     0.00633
 2469          1     0.00608
 2471          1     0.00564
 2474          1     0.00546
 2475          2     0.00999
 2477          1     0.00587
 2480          2     0.00607
 2481          1     0.01358
 2484          2     0.01485
 2485          1     0.00648
 2487          1     0.00633
 2488          1     0.01244
 2491          1     0.00647
 2493          1     0.00609
 2494          2     0.00608
 2495          3     0.00901
 2496          1     0.00656
 2498          1     0.00621
 2505          2     0.00679
 2514          1     0.00606
 2518          1     0.00649
 2530          4     0.00681
 2531          1     0.00616
 2533          1     0.01222
 2538          1     0.01121
 2540          1     0.00645
 2541          1     0.00594
 2546          1     0.00582
 2549          1     0.00597
 2552          2     0.00655
 2555          1     0.00607
 2559          1     0.00618
 2560          2     0.01239
 2561          2     0.00657
 2562          1     0.00761
 2571          1     0.00608
 2574          1     0.00641
 2589          1     0.00576
 2593          1     0.00627
 2600          1     0.00603
 2601          2     0.01171
 2603          1     0.00612
 2606          1     0.00939
 2607          1     0.00608
 2612          1     0.00985
 2615          1     0.00690
 2619          1     0.00647
 2623          1     0.01067
 2625          1     0.01466
 2626          1     0.00667
 2628          1     0.00636
 2634          1     0.00604
 2635          1     0.00601
 2638          1     0.00646
 2641          1     0.00639
 2642          1     0.00615
 2644          1     0.00779
 2645          1     0.00609
 2646          1     0.00629
 2648          1     0.00643
 2649          1     0.01112
 2651          1     0.00604
 2655          1     0.00608
 2657          1     0.00601
 2660          1     0.01416
 2663          1     0.00901
 2669          1     0.00592
 2671          1     0.00645
 2672          1     0.00652
 2680          1     0.01049
 2689          1     0.01162
 2692          1     0.00611
 2693          1     0.00590
 2702          1     0.00578
 2703          1     0.00596
 2713          1     0.00534
 2719          1     0.00862
 2721          1     0.00557
 2723          2     0.00567
 2731          1     0.00909
 2738          1     0.00632
 2741          1     0.00914
 2742          1     0.00658
 2745          1     0.00869
 2747          1     0.00631
 2762          1     0.01040
 2777          1     0.00619
 2778          1     0.00624
 2780          1     0.01081
 2781          1     0.00594
 2783          1     0.00628
 2786          1     0.01164
 2787          1     0.00636
 2797          1     0.00573
 2800          1     0.00578
 2802          1     0.00554
 2804          1     0.00570
 2808          2     0.00597
 2817          1     0.00596
 2834          1     0.00611
 2846          2     0.01490
 2851          1     0.00582
 2855          1     0.00537
 2867          2     0.01847
 2870          1     0.00590
 2893          1     0.00557
 2906          1     0.00614
 2908          2     0.01028
 2915          1     0.00611
 2917          1     0.00618
 2930          1     0.00735
 2943          1     0.00585
 2962          1     0.00594
 2975          1     0.00644
 2992          1     0.00603
 2993          1     0.00910
 2996          1     0.00562
 2997          1     0.00615
 3001          1     0.01602
 3036          1     0.00641
 3046          1     0.00577
 3050          1     0.00565
 3052          1     0.00568
 3059          2     0.01175
 3060          1     0.00575
 3064          1     0.00591
 3067          1     0.00571
 3068          1     0.00589
 3082          1     0.01062
 3115          1     0.00633
 3159          1     0.01102
 3162          1     0.00564
 3180          1     0.00518
 3181          1     0.01309
 3227          1     0.00586
 3245          1     0.00581
 3273          1     0.00558
 3295          1     0.00591
 3296          1     0.01352
 3307          1     0.00569
 3314          1     0.00588
 3315          1     0.00572
 3324          1     0.00582
 3351          1     0.00564
 3359          1     0.00599
 3373          1     0.09976
 3377          1     0.00949
 3382          2     0.01274
 3393          1     0.01669
 3405          2     0.00600
 3419          1     0.00581
 3425          1     0.00666
 3431          1     0.00592
 3439          1     0.00541
 3460          1     0.01322
 3466          1     0.00822
 3470          1     0.00625
 3475          1     0.00604
 3492          1     0.00598
 3515          1     0.00614
 3530          1     0.00581
 3546          1     0.00599
 3547          1     0.00579
 3549          1     0.00600
 3551          1     0.00638
 3568          1     0.00638
 3573          1     0.00619
 3583          1     0.00632
 3607          1     0.00623
 3608          1     0.01000
 3613          1     0.00600
 3630          1     0.00566
 3648          1     0.00600
 3656          1     0.00560
took 2405 iterations
Trial Time:          0.08454
    0          1     0.01917
  200          1     0.00635
  204          1     0.00596
  232          1     0.00519
took 4 iterations
Trial Time:          0.00056
    0          1     0.03225
   44          1     0.01662
   61          1     0.02429
   69          1     0.00964
   71          1     0.00641
  105          1     0.00732
  107          1     0.00629
  108          1     0.00607
  126          1     0.03248
  143          1     0.00859
  146          2     0.01585
  152          1     0.01234
  153          1     0.00623
  161          1     0.00616
  167          2     0.02873
  174          1     0.01705
  183          1     0.00986
  189          1     0.00958
  195          1     0.00675
  204          1     0.02117
  205          2     0.00674
  208          1     0.00572
  209          1     0.00592
  210          1     0.00577
  211          1     0.00617
  214          2     0.00672
  218          1     0.00619
  219          1     0.01648
  225          1     0.00632
  226          1     0.00888
  229          1     0.01242
  230          1     0.00602
  234          1     0.00605
  239          1     0.00581
  240          1     0.00583
  242          1     0.00584
  247          1     0.02122
  249          1     0.00632
  253          1     0.00617
  256          1     0.00881
  258          1     0.00550
  259          2     0.00588
  264          1     0.00596
  265          1     0.00574
  267          1     0.00603
  270          2     0.01710
  271          1     0.00651
  286          1     0.00568
  296          1     0.00558
  298          4     0.00944
  299          1     0.01803
  300          1     0.00930
  301          1     0.01187
  302          1     0.00578
  303          1     0.00560
  305          1     0.00545
  306          1     0.01789
  310          1     0.00899
  313          1     0.01120
  314          1     0.01008
  315          2     0.01177
  316          1     0.01000
  317          1     0.00578
  318          1     0.00749
  319          1     0.00548
  320          2     0.01491
  323          2     0.00827
  326          1     0.00582
  327          1     0.00544
  328          1     0.00557
  329          1     0.00551
  330          1     0.00907
  332          2     0.01146
  333          1     0.00755
  338          1     0.00553
  341          2     0.01157
  342          2     0.00556
  348          3     0.00830
  352          1     0.00514
  353          1     0.00546
  354          1     0.00526
  356          1     0.00558
  358          1     0.01162
  362          3     0.02040
  364          1     0.00611
  365          1     0.00535
  366          1     0.00645
  368          2     0.01121
  369          1     0.00613
  371          1     0.00572
  373          1     0.02876
  377          2     0.00982
  378          3     0.00572
  381          1     0.01189
  382          1     0.00563
  384          1     0.00556
  385          1     0.00539
  386          2     0.00577
  388          2     0.01111
  390          2     0.00590
  391          2     0.01657
  394          1     0.00618
  395          1     0.00600
  398          1     0.00605
  399          1     0.00611
  400          1     0.00600
  403          1     0.00613
  408          1     0.00604
  409          1     0.00572
  410          2     0.00600
  415          1     0.00597
  417          1     0.00706
  418          2     0.00604
  422          2     0.03902
  423          1     0.00592
  426          2     0.00976
  428          1     0.01533
  429          3     0.00611
  431          1     0.00566
  436          3     0.00895
  439          1     0.01161
  440          1     0.00567
  441          1     0.00541
  442          1     0.00547
  445          1     0.00536
  446          3     0.00936
  448          1     0.01320
  449          2     0.01598
  451          1     0.00622
  452          2     0.00621
  453          3     0.01582
  455          2     0.01510
  459          1     0.01023
  461          1     0.00549
  462          1     0.00650
  464          1     0.00549
  467          1     0.01394
  468          2     0.00635
  470          1     0.00557
  471          1     0.00573
  473          1     0.00896
  474          1     0.00566
  477          2     0.00996
  479          2     0.01382
  482          5     0.01477
  484          1     0.00607
  485          2     0.00563
  486          3     0.01010
  487          1     0.00572
  488          1     0.00547
  489          1     0.00549
  491          2     0.00539
  492          1     0.00857
  494          1     0.01469
  496          1     0.00566
  497          1     0.00574
  500          1     0.00516
  502          2     0.00536
  503          1     0.00527
  504          1     0.00786
  509          1     0.00561
  511          1     0.00550
  513          2     0.00554
  515          1     0.00545
  517          2     0.01545
  519          2     0.01150
  520          3     0.02211
  521          2     0.00808
  522          2     0.01118
  523          1     0.00622
  527          1     0.00556
  529          1     0.00559
  530          1     0.00514
  531          1     0.00530
  532          2     0.01052
  533          1     0.00525
  534          1     0.00542
  535          2     0.00912
  536          1     0.00534
  538          1     0.00583
  543          1     0.00519
  545          1     0.00547
  546          3     0.01295
  548          1     0.00527
  551          2     0.02334
  552          3     0.00648
  553          1     0.00589
  555          1     0.00975
  556          2     0.01314
  557          1     0.00556
  558          2     0.00581
  562          1     0.00571
  565          1     0.00848
  566          1     0.00552
  568          1     0.00979
  569          1     0.00599
  573          1     0.01222
  574          1     0.00997
  575          4     0.01687
  576          1     0.00877
  578          1     0.00543
  580          3     0.01154
  581          1     0.01525
  582          2     0.00617
  583          1     0.00589
  585          1     0.00942
  586          1     0.01687
  587          1     0.00561
  588          2     0.00986
  590          2     0.00839
  591          1     0.00551
  593          1     0.00533
  594          1     0.00834
  596          1     0.00842
  597          1     0.00569
  601          1     0.00575
  602          3     0.00582
  603          1     0.00563
  604          1     0.00583
  605          1     0.00571
  606          1     0.00541
  607          2     0.00558
  611          4     0.01180
  612          3     0.00852
  613          2     0.00559
  614          1     0.00537
  616          1     0.00547
  618          1     0.00546
  623          1     0.00543
  624          1     0.01086
  626          1     0.00531
  628          1     0.00592
  630          1     0.00585
  632          1     0.00638
  633          1     0.00623
  639          3     0.00574
  643          3     0.00584
  644          1     0.00881
  645          2     0.00611
  647          1     0.00588
  648          1     0.00870
  649          2     0.01633
  651          2     0.00603
  653          2     0.01314
  654          1     0.00610
  658          2     0.00960
  659          1     0.00571
  663          1     0.00849
  664          1     0.00530
  665          1     0.00968
  666          2     0.00589
  667          1     0.00590
  669          2     0.01066
  670          1     0.00590
  671          1     0.00544
  672          1     0.00564
  673          4     0.00685
  674          1     0.03441
  676          1     0.00642
  678          1     0.00604
  680          2     0.00596
  682          2     0.00882
  686          1     0.00603
  687          1     0.00599
  689          1     0.01011
  692          3     0.00618
  693          1     0.00594
  694          1     0.00613
  700          1     0.00652
  701          1     0.00960
  702          1     0.01810
  703          1     0.00616
  704          1     0.00905
  706          2     0.00664
  707          1     0.01033
  709          1     0.00631
  711          3     0.00746
  715          2     0.00599
  716          2     0.00914
  717          1     0.00571
  720          1     0.00593
  721          1     0.00562
  722          1     0.00524
  723          1     0.00604
  726          1     0.00593
  727          1     0.00561
  728          2     0.00564
  729          1     0.00601
  730          2     0.00646
  731          2     0.00622
  732          2     0.01347
  733          2     0.00640
  734          1     0.00598
  735          2     0.01207
  736          1     0.00604
  739          2     0.00625
  741          1     0.00582
  746          1     0.00564
  747          1     0.00603
  749          2     0.00642
  750          1     0.00628
  751          1     0.00601
  753          1     0.00592
  754          1     0.00614
  756          1     0.00641
  762          1     0.00623
  763          1     0.01178
  764          1     0.00606
  765          1     0.00549
  766          1     0.00569
  767          1     0.00615
  769          1     0.00571
  770          1     0.00619
  772          1     0.00599
  775          2     0.00917
  777          1     0.00633
  778          1     0.00649
  781          1     0.00925
  783          1     0.00603
  787          2     0.01144
  788          1     0.00595
  789          1     0.00614
  792          1     0.03417
  793          1     0.00669
  794          1     0.00630
  799          1     0.00629
  804          1     0.00560
  807          1     0.00543
  809          1     0.00591
  814          1     0.00563
  815          1     0.00567
  818          1     0.00547
  819          1     0.00547
  824          1     0.00554
  828          1     0.00593
  835          1     0.00613
  836          1     0.01049
  842          1     0.01134
  844          1     0.00676
  849          1     0.00582
  850          1     0.00573
  855          1     0.00672
  866          1     0.00583
  867          1     0.01372
  872          1     0.00613
  877          1     0.01111
  878          1     0.00545
  880          1     0.00577
  881          2     0.00566
  891          1     0.00509
  895          1     0.01129
  896          1     0.00649
  897          1     0.00673
  904          1     0.01373
  907          1     0.00750
  911          1     0.01150
  917          1     0.00591
  922          1     0.01405
  925          1     0.00637
  927          2     0.01119
  943          1     0.00605
  950          1     0.00579
  951          1     0.01909
  968          1     0.01053
  972          1     0.00613
  974          1     0.00566
  975          1     0.01039
  976          1     0.00613
  978          2     0.00983
  982          1     0.00659
  985          1     0.00722
  988          2     0.00587
 1005          1     0.00582
 1012          1     0.00626
 1013          1     0.00621
 1015          1     0.00571
 1020          1     0.00592
 1023          1     0.00596
 1026          1     0.00558
 1033          1     0.00571
 1035          1     0.00606
 1039          1     0.00601
 1045          1     0.00635
 1046          1     0.00667
 1050          1     0.00615
 1057          1     0.00630
 1061          1     0.00677
 1069          2     0.00658
 1072          1     0.00946
 1076          1     0.04407
 1084          2     0.00647
 1094          1     0.00625
 1096          1     0.00606
 1107          1     0.00618
 1117          1     0.00560
 1124          1     0.00574
 1144          1     0.00584
 1146          1     0.00621
 1167          1     0.00575
 1193          1     0.00584
 1219          1     0.00597
 1274          1     0.00565
took 402 iterations
Trial Time:          0.01115
    0          1     0.02669
   71          1     0.00626
   93          1     0.00670
  174          1     0.00578
  192          1     0.00571
took 5 iterations
Trial Time:          0.00058
    0          1     0.01684
  136          1     0.00613
took 2 iterations
Trial Time:          0.00050
    0          1     0.01781
  134          1     0.00685
  226          1     0.00600
took 3 iterations
Trial Time:          0.00053
    0          1     0.01604
   64          1     0.00528
   66          1     0.00538
took 3 iterations
Trial Time:          0.00052
Average Time:        0.01402
Exiting @ tick 1693859181000 because exiting with last active thread context
