
---------- Begin Simulation Statistics ----------
final_tick                               1450183600500                       # Number of ticks from beginning of simulation (restored from checkpoints and never reset)
host_inst_rate                                  61727                       # Simulator instruction rate (inst/s)
host_mem_usage                                 702636                       # Number of bytes of host memory used
host_op_rate                                    61892                       # Simulator op (including micro ops) rate (op/s)
host_seconds                                 25372.84                       # Real time elapsed on the host
host_tick_rate                               57154947                       # Simulator tick rate (ticks/s)
sim_freq                                 1000000000000                       # Frequency of simulated ticks
sim_insts                                  1566183452                       # Number of instructions simulated
sim_ops                                    1570387224                       # Number of ops (including micro ops) simulated
sim_seconds                                  1.450184                       # Number of seconds simulated
sim_ticks                                1450183600500                       # Number of ticks simulated
system.cpu0.branchPred.BTBCorrect                   0                       # Number of correct BTB predictions (this stat may not work properly.
system.cpu0.branchPred.BTBHitPct            85.317931                       # BTB Hit Percentage
system.cpu0.branchPred.BTBHits              191122092                       # Number of BTB hits
system.cpu0.branchPred.BTBLookups           224011636                       # Number of BTB lookups
system.cpu0.branchPred.RASInCorrect                 0                       # Number of incorrect RAS predictions.
system.cpu0.branchPred.condIncorrect         12597116                       # Number of conditional branches incorrect
system.cpu0.branchPred.condPredicted        292275957                       # Number of conditional branches predicted
system.cpu0.branchPred.indirectHits          30178820                       # Number of indirect target hits.
system.cpu0.branchPred.indirectLookups       30768873                       # Number of indirect predictor lookups.
system.cpu0.branchPred.indirectMisses          590053                       # Number of indirect misses.
system.cpu0.branchPred.lookups              378964461                       # Number of BP lookups
system.cpu0.branchPred.usedRAS                      0                       # Number of times the RAS was used to get a target.
system.cpu0.branchPredindirectMispredicted      2276168                       # Number of mispredicted indirect branches.
system.cpu0.commit.amos                       2100290                       # Number of atomic instructions committed
system.cpu0.commit.branchMispredicts          8175517                       # The number of times a branch was mispredicted
system.cpu0.commit.branches                 343025483                       # Number of branches committed
system.cpu0.commit.bw_lim_events             50695384                       # number cycles where commit BW limit reached
system.cpu0.commit.commitNonSpecStalls        6309792                       # The number of times commit has been forced to stall to communicate backwards
system.cpu0.commit.commitSquashedInsts      162124836                       # The number of squashed insts skipped by commit
system.cpu0.commit.committedInsts          1408181988                       # Number of instructions committed
system.cpu0.commit.committedOps            1410285573                       # Number of ops (including micro ops) committed
system.cpu0.commit.committed_per_cycle::samples   2492820692                       # Number of insts commited each cycle
system.cpu0.commit.committed_per_cycle::mean     0.565739                       # Number of insts commited each cycle
system.cpu0.commit.committed_per_cycle::stdev     1.407589                       # Number of insts commited each cycle
system.cpu0.commit.committed_per_cycle::underflows            0      0.00%      0.00% # Number of insts commited each cycle
system.cpu0.commit.committed_per_cycle::0   1857953675     74.53%     74.53% # Number of insts commited each cycle
system.cpu0.commit.committed_per_cycle::1    366957705     14.72%     89.25% # Number of insts commited each cycle
system.cpu0.commit.committed_per_cycle::2     90888362      3.65%     92.90% # Number of insts commited each cycle
system.cpu0.commit.committed_per_cycle::3     77700072      3.12%     96.02% # Number of insts commited each cycle
system.cpu0.commit.committed_per_cycle::4     31704042      1.27%     97.29% # Number of insts commited each cycle
system.cpu0.commit.committed_per_cycle::5      8541053      0.34%     97.63% # Number of insts commited each cycle
system.cpu0.commit.committed_per_cycle::6      5296370      0.21%     97.84% # Number of insts commited each cycle
system.cpu0.commit.committed_per_cycle::7      3084029      0.12%     97.97% # Number of insts commited each cycle
system.cpu0.commit.committed_per_cycle::8     50695384      2.03%    100.00% # Number of insts commited each cycle
system.cpu0.commit.committed_per_cycle::overflows            0      0.00%    100.00% # Number of insts commited each cycle
system.cpu0.commit.committed_per_cycle::min_value            0                       # Number of insts commited each cycle
system.cpu0.commit.committed_per_cycle::max_value            8                       # Number of insts commited each cycle
system.cpu0.commit.committed_per_cycle::total   2492820692                       # Number of insts commited each cycle
system.cpu0.commit.fp_insts                        50                       # Number of committed floating point instructions.
system.cpu0.commit.function_calls            29098037                       # Number of function calls committed.
system.cpu0.commit.int_insts               1363643875                       # Number of committed integer instructions.
system.cpu0.commit.loads                    423704992                       # Number of loads committed
system.cpu0.commit.membars                    4203753                       # Number of memory barriers committed
system.cpu0.commit.op_class_0::No_OpClass      4203759      0.30%      0.30% # Class of committed instruction
system.cpu0.commit.op_class_0::IntAlu       798537305     56.62%     56.92% # Class of committed instruction
system.cpu0.commit.op_class_0::IntMult       12621994      0.89%     57.82% # Class of committed instruction
system.cpu0.commit.op_class_0::IntDiv         3672708      0.26%     58.08% # Class of committed instruction
system.cpu0.commit.op_class_0::FloatAdd             0      0.00%     58.08% # Class of committed instruction
system.cpu0.commit.op_class_0::FloatCmp             4      0.00%     58.08% # Class of committed instruction
system.cpu0.commit.op_class_0::FloatCvt            12      0.00%     58.08% # Class of committed instruction
system.cpu0.commit.op_class_0::FloatMult            0      0.00%     58.08% # Class of committed instruction
system.cpu0.commit.op_class_0::FloatMultAcc            0      0.00%     58.08% # Class of committed instruction
system.cpu0.commit.op_class_0::FloatDiv             2      0.00%     58.08% # Class of committed instruction
system.cpu0.commit.op_class_0::FloatMisc            4      0.00%     58.08% # Class of committed instruction
system.cpu0.commit.op_class_0::FloatSqrt            0      0.00%     58.08% # Class of committed instruction
system.cpu0.commit.op_class_0::SimdAdd              0      0.00%     58.08% # Class of committed instruction
system.cpu0.commit.op_class_0::SimdAddAcc            0      0.00%     58.08% # Class of committed instruction
system.cpu0.commit.op_class_0::SimdAlu              0      0.00%     58.08% # Class of committed instruction
system.cpu0.commit.op_class_0::SimdCmp              0      0.00%     58.08% # Class of committed instruction
system.cpu0.commit.op_class_0::SimdCvt              0      0.00%     58.08% # Class of committed instruction
system.cpu0.commit.op_class_0::SimdMisc             0      0.00%     58.08% # Class of committed instruction
system.cpu0.commit.op_class_0::SimdMult             0      0.00%     58.08% # Class of committed instruction
system.cpu0.commit.op_class_0::SimdMultAcc            0      0.00%     58.08% # Class of committed instruction
system.cpu0.commit.op_class_0::SimdShift            0      0.00%     58.08% # Class of committed instruction
system.cpu0.commit.op_class_0::SimdShiftAcc            0      0.00%     58.08% # Class of committed instruction
system.cpu0.commit.op_class_0::SimdDiv              0      0.00%     58.08% # Class of committed instruction
system.cpu0.commit.op_class_0::SimdSqrt             0      0.00%     58.08% # Class of committed instruction
system.cpu0.commit.op_class_0::SimdFloatAdd            0      0.00%     58.08% # Class of committed instruction
system.cpu0.commit.op_class_0::SimdFloatAlu            0      0.00%     58.08% # Class of committed instruction
system.cpu0.commit.op_class_0::SimdFloatCmp            0      0.00%     58.08% # Class of committed instruction
system.cpu0.commit.op_class_0::SimdFloatCvt            0      0.00%     58.08% # Class of committed instruction
system.cpu0.commit.op_class_0::SimdFloatDiv            0      0.00%     58.08% # Class of committed instruction
system.cpu0.commit.op_class_0::SimdFloatMisc            0      0.00%     58.08% # Class of committed instruction
system.cpu0.commit.op_class_0::SimdFloatMult            0      0.00%     58.08% # Class of committed instruction
system.cpu0.commit.op_class_0::SimdFloatMultAcc            0      0.00%     58.08% # Class of committed instruction
system.cpu0.commit.op_class_0::SimdFloatSqrt            0      0.00%     58.08% # Class of committed instruction
system.cpu0.commit.op_class_0::SimdReduceAdd            0      0.00%     58.08% # Class of committed instruction
system.cpu0.commit.op_class_0::SimdReduceAlu            0      0.00%     58.08% # Class of committed instruction
system.cpu0.commit.op_class_0::SimdReduceCmp            0      0.00%     58.08% # Class of committed instruction
system.cpu0.commit.op_class_0::SimdFloatReduceAdd            0      0.00%     58.08% # Class of committed instruction
system.cpu0.commit.op_class_0::SimdFloatReduceCmp            0      0.00%     58.08% # Class of committed instruction
system.cpu0.commit.op_class_0::SimdAes              0      0.00%     58.08% # Class of committed instruction
system.cpu0.commit.op_class_0::SimdAesMix            0      0.00%     58.08% # Class of committed instruction
system.cpu0.commit.op_class_0::SimdSha1Hash            0      0.00%     58.08% # Class of committed instruction
system.cpu0.commit.op_class_0::SimdSha1Hash2            0      0.00%     58.08% # Class of committed instruction
system.cpu0.commit.op_class_0::SimdSha256Hash            0      0.00%     58.08% # Class of committed instruction
system.cpu0.commit.op_class_0::SimdSha256Hash2            0      0.00%     58.08% # Class of committed instruction
system.cpu0.commit.op_class_0::SimdShaSigma2            0      0.00%     58.08% # Class of committed instruction
system.cpu0.commit.op_class_0::SimdShaSigma3            0      0.00%     58.08% # Class of committed instruction
system.cpu0.commit.op_class_0::SimdPredAlu            0      0.00%     58.08% # Class of committed instruction
system.cpu0.commit.op_class_0::MemRead      425805274     30.19%     88.27% # Class of committed instruction
system.cpu0.commit.op_class_0::MemWrite     165444483     11.73%    100.00% # Class of committed instruction
system.cpu0.commit.op_class_0::FloatMemRead            8      0.00%    100.00% # Class of committed instruction
system.cpu0.commit.op_class_0::FloatMemWrite           20      0.00%    100.00% # Class of committed instruction
system.cpu0.commit.op_class_0::IprAccess            0      0.00%    100.00% # Class of committed instruction
system.cpu0.commit.op_class_0::InstPrefetch            0      0.00%    100.00% # Class of committed instruction
system.cpu0.commit.op_class_0::total       1410285573                       # Class of committed instruction
system.cpu0.commit.refs                     591249785                       # Number of memory references committed
system.cpu0.commit.swp_count                        0                       # Number of s/w prefetches committed
system.cpu0.commit.vec_insts                        0                       # Number of committed Vector instructions.
system.cpu0.committedInsts                 1408181988                       # Number of Instructions Simulated
system.cpu0.committedOps                   1410285573                       # Number of Ops (including micro ops) Simulated
system.cpu0.cpi                              2.052004                       # CPI: Cycles Per Instruction
system.cpu0.cpi_total                        2.052004                       # CPI: Total CPI of All Threads
system.cpu0.decode.BlockedCycles            552398490                       # Number of cycles decode is blocked
system.cpu0.decode.BranchMispred              4433428                       # Number of times decode detected a branch misprediction
system.cpu0.decode.BranchResolved           187712527                       # Number of times decode resolved a branch
system.cpu0.decode.DecodedInsts            1592733924                       # Number of instructions handled by decode
system.cpu0.decode.IdleCycles               841138882                       # Number of cycles decode is idle
system.cpu0.decode.RunCycles               1107540068                       # Number of cycles decode is running
system.cpu0.decode.SquashCycles               8191880                       # Number of cycles decode is squashing
system.cpu0.decode.SquashedInsts             15076648                       # Number of squashed instructions handled by decode
system.cpu0.decode.UnblockCycles              9342142                       # Number of cycles decode is unblocking
system.cpu0.dtb.accesses                            0                       # DTB accesses
system.cpu0.dtb.hits                                0                       # DTB hits
system.cpu0.dtb.misses                              0                       # DTB misses
system.cpu0.dtb.read_accesses                       0                       # DTB read accesses
system.cpu0.dtb.read_hits                           0                       # DTB read hits
system.cpu0.dtb.read_misses                         0                       # DTB read misses
system.cpu0.dtb.write_accesses                      0                       # DTB write accesses
system.cpu0.dtb.write_hits                          0                       # DTB write hits
system.cpu0.dtb.write_misses                        0                       # DTB write misses
system.cpu0.fetch.Branches                  378964461                       # Number of branches that fetch encountered
system.cpu0.fetch.CacheLines                281501308                       # Number of cache lines fetched
system.cpu0.fetch.Cycles                   1660687958                       # Number of cycles fetch has run and was not squashing or blocked
system.cpu0.fetch.IcacheSquashes              4534898                       # Number of outstanding Icache misses that were squashed
system.cpu0.fetch.IcacheWaitRetryStallCycles           80                       # Number of stall cycles due to full MSHR
system.cpu0.fetch.Insts                    1625090388                       # Number of instructions fetch has processed
system.cpu0.fetch.MiscStallCycles                 178                       # Number of cycles fetch has spent waiting on interrupts, or bad addresses, or out of MSHRs
system.cpu0.fetch.PendingTrapStallCycles          254                       # Number of stall cycles due to pending traps
system.cpu0.fetch.SquashCycles               25227040                       # Number of cycles fetch has spent squashing
system.cpu0.fetch.branchRate                 0.131148                       # Number of branch fetches per cycle
system.cpu0.fetch.icacheStallCycles         845309472                       # Number of cycles fetch is stalled on an Icache miss
system.cpu0.fetch.predictedBranches         221300912                       # Number of branches that fetch has predicted taken
system.cpu0.fetch.rate                       0.562394                       # Number of inst fetches per cycle
system.cpu0.fetch.rateDist::samples        2518611462                       # Number of instructions fetched each cycle (Total)
system.cpu0.fetch.rateDist::mean             0.646068                       # Number of instructions fetched each cycle (Total)
system.cpu0.fetch.rateDist::stdev            0.878384                       # Number of instructions fetched each cycle (Total)
system.cpu0.fetch.rateDist::underflows              0      0.00%      0.00% # Number of instructions fetched each cycle (Total)
system.cpu0.fetch.rateDist::0              1345734010     53.43%     53.43% # Number of instructions fetched each cycle (Total)
system.cpu0.fetch.rateDist::1               876089919     34.78%     88.22% # Number of instructions fetched each cycle (Total)
system.cpu0.fetch.rateDist::2               184386270      7.32%     95.54% # Number of instructions fetched each cycle (Total)
system.cpu0.fetch.rateDist::3                86419828      3.43%     98.97% # Number of instructions fetched each cycle (Total)
system.cpu0.fetch.rateDist::4                12270201      0.49%     99.46% # Number of instructions fetched each cycle (Total)
system.cpu0.fetch.rateDist::5                10384388      0.41%     99.87% # Number of instructions fetched each cycle (Total)
system.cpu0.fetch.rateDist::6                 1221304      0.05%     99.92% # Number of instructions fetched each cycle (Total)
system.cpu0.fetch.rateDist::7                 2102304      0.08%    100.00% # Number of instructions fetched each cycle (Total)
system.cpu0.fetch.rateDist::8                    3238      0.00%    100.00% # Number of instructions fetched each cycle (Total)
system.cpu0.fetch.rateDist::overflows               0      0.00%    100.00% # Number of instructions fetched each cycle (Total)
system.cpu0.fetch.rateDist::min_value               0                       # Number of instructions fetched each cycle (Total)
system.cpu0.fetch.rateDist::max_value               8                       # Number of instructions fetched each cycle (Total)
system.cpu0.fetch.rateDist::total          2518611462                       # Number of instructions fetched each cycle (Total)
system.cpu0.fp_regfile_reads                       44                       # number of floating regfile reads
system.cpu0.fp_regfile_writes                      23                       # number of floating regfile writes
system.cpu0.idleCycles                      370983216                       # Total number of cycles that the CPU has spent unscheduled due to idling
system.cpu0.iew.branchMispredicts             8306732                       # Number of branch mispredicts detected at execute
system.cpu0.iew.exec_branches               362105713                       # Number of branches executed
system.cpu0.iew.exec_nop                            0                       # number of nop insts executed
system.cpu0.iew.exec_rate                    0.537062                       # Inst execution rate
system.cpu0.iew.exec_refs                   678092158                       # number of memory reference insts executed
system.cpu0.iew.exec_stores                 199986885                       # Number of stores executed
system.cpu0.iew.exec_swp                            0                       # number of swp insts executed
system.cpu0.iew.iewBlockCycles              411738909                       # Number of cycles IEW is blocking
system.cpu0.iew.iewDispLoadInsts            477065111                       # Number of dispatched load instructions
system.cpu0.iew.iewDispNonSpecInsts           2106290                       # Number of dispatched non-speculative instructions
system.cpu0.iew.iewDispSquashedInsts          4805970                       # Number of squashed instructions skipped by dispatch
system.cpu0.iew.iewDispStoreInsts           205107439                       # Number of dispatched store instructions
system.cpu0.iew.iewDispatchedInsts         1572347966                       # Number of instructions dispatched to IQ
system.cpu0.iew.iewExecLoadInsts            478105273                       # Number of load instructions executed
system.cpu0.iew.iewExecSquashedInsts          8041165                       # Number of squashed instructions skipped in execute
system.cpu0.iew.iewExecutedInsts           1551890109                       # Number of executed instructions
system.cpu0.iew.iewIQFullEvents               1621921                       # Number of times the IQ has become full, causing a stall
system.cpu0.iew.iewIdleCycles                       0                       # Number of cycles IEW is idle
system.cpu0.iew.iewLSQFullEvents             17935724                       # Number of times the LSQ has become full, causing a stall
system.cpu0.iew.iewSquashCycles               8191880                       # Number of cycles IEW is squashing
system.cpu0.iew.iewUnblockCycles             22372900                       # Number of cycles IEW is unblocking
system.cpu0.iew.lsq.thread0.blockedLoads            0                       # Number of blocked loads due to partial load-store forwarding
system.cpu0.iew.lsq.thread0.cacheBlocked      1019911                       # Number of times an access to memory failed due to the cache being blocked
system.cpu0.iew.lsq.thread0.forwLoads        35703305                       # Number of loads that had data forwarded from stores
system.cpu0.iew.lsq.thread0.ignoredResponses        34206                       # Number of memory responses ignored because the instruction is squashed
system.cpu0.iew.lsq.thread0.invAddrLoads            0                       # Number of loads ignored due to an invalid address
system.cpu0.iew.lsq.thread0.invAddrSwpfs            0                       # Number of software prefetches ignored due to an invalid address
system.cpu0.iew.lsq.thread0.memOrderViolation        17122                       # Number of memory ordering violations
system.cpu0.iew.lsq.thread0.rescheduledLoads      8459657                       # Number of loads that were rescheduled
system.cpu0.iew.lsq.thread0.squashedLoads     53360119                       # Number of loads squashed
system.cpu0.iew.lsq.thread0.squashedStores     37562636                       # Number of stores squashed
system.cpu0.iew.memOrderViolationEvents         17122                       # Number of memory order violations
system.cpu0.iew.predictedNotTakenIncorrect       545523                       # Number of branches that were predicted not taken incorrectly
system.cpu0.iew.predictedTakenIncorrect       7761209                       # Number of branches that were predicted taken incorrectly
system.cpu0.iew.wb_consumers                680429472                       # num instructions consuming a value
system.cpu0.iew.wb_count                   1537657073                       # cumulative count of insts written-back
system.cpu0.iew.wb_fanout                    0.848064                       # average fanout of values written-back
system.cpu0.iew.wb_producers                577047963                       # num instructions producing a value
system.cpu0.iew.wb_rate                      0.532136                       # insts written-back per cycle
system.cpu0.iew.wb_sent                    1537792183                       # cumulative count of insts sent to commit
system.cpu0.int_regfile_reads              1916262583                       # number of integer regfile reads
system.cpu0.int_regfile_writes              989877416                       # number of integer regfile writes
system.cpu0.ipc                              0.487329                       # IPC: Instructions Per Cycle
system.cpu0.ipc_total                        0.487329                       # IPC: Total IPC of All Threads
system.cpu0.iq.FU_type_0::No_OpClass          4205662      0.27%      0.27% # Type of FU issued
system.cpu0.iq.FU_type_0::IntAlu            859951070     55.13%     55.40% # Type of FU issued
system.cpu0.iq.FU_type_0::IntMult            12625049      0.81%     56.21% # Type of FU issued
system.cpu0.iq.FU_type_0::IntDiv              3673755      0.24%     56.44% # Type of FU issued
system.cpu0.iq.FU_type_0::FloatAdd                  0      0.00%     56.44% # Type of FU issued
system.cpu0.iq.FU_type_0::FloatCmp                  4      0.00%     56.44% # Type of FU issued
system.cpu0.iq.FU_type_0::FloatCvt                 12      0.00%     56.44% # Type of FU issued
system.cpu0.iq.FU_type_0::FloatMult                 0      0.00%     56.44% # Type of FU issued
system.cpu0.iq.FU_type_0::FloatMultAcc              0      0.00%     56.44% # Type of FU issued
system.cpu0.iq.FU_type_0::FloatDiv                  2      0.00%     56.44% # Type of FU issued
system.cpu0.iq.FU_type_0::FloatMisc                 4      0.00%     56.44% # Type of FU issued
system.cpu0.iq.FU_type_0::FloatSqrt                 0      0.00%     56.44% # Type of FU issued
system.cpu0.iq.FU_type_0::SimdAdd                   0      0.00%     56.44% # Type of FU issued
system.cpu0.iq.FU_type_0::SimdAddAcc                0      0.00%     56.44% # Type of FU issued
system.cpu0.iq.FU_type_0::SimdAlu                   0      0.00%     56.44% # Type of FU issued
system.cpu0.iq.FU_type_0::SimdCmp                   0      0.00%     56.44% # Type of FU issued
system.cpu0.iq.FU_type_0::SimdCvt                   0      0.00%     56.44% # Type of FU issued
system.cpu0.iq.FU_type_0::SimdMisc                  0      0.00%     56.44% # Type of FU issued
system.cpu0.iq.FU_type_0::SimdMult                  0      0.00%     56.44% # Type of FU issued
system.cpu0.iq.FU_type_0::SimdMultAcc               0      0.00%     56.44% # Type of FU issued
system.cpu0.iq.FU_type_0::SimdShift                 0      0.00%     56.44% # Type of FU issued
system.cpu0.iq.FU_type_0::SimdShiftAcc              0      0.00%     56.44% # Type of FU issued
system.cpu0.iq.FU_type_0::SimdDiv                   0      0.00%     56.44% # Type of FU issued
system.cpu0.iq.FU_type_0::SimdSqrt                  0      0.00%     56.44% # Type of FU issued
system.cpu0.iq.FU_type_0::SimdFloatAdd              0      0.00%     56.44% # Type of FU issued
system.cpu0.iq.FU_type_0::SimdFloatAlu              0      0.00%     56.44% # Type of FU issued
system.cpu0.iq.FU_type_0::SimdFloatCmp              0      0.00%     56.44% # Type of FU issued
system.cpu0.iq.FU_type_0::SimdFloatCvt              0      0.00%     56.44% # Type of FU issued
system.cpu0.iq.FU_type_0::SimdFloatDiv              0      0.00%     56.44% # Type of FU issued
system.cpu0.iq.FU_type_0::SimdFloatMisc             0      0.00%     56.44% # Type of FU issued
system.cpu0.iq.FU_type_0::SimdFloatMult             0      0.00%     56.44% # Type of FU issued
system.cpu0.iq.FU_type_0::SimdFloatMultAcc            0      0.00%     56.44% # Type of FU issued
system.cpu0.iq.FU_type_0::SimdFloatSqrt             0      0.00%     56.44% # Type of FU issued
system.cpu0.iq.FU_type_0::SimdReduceAdd             0      0.00%     56.44% # Type of FU issued
system.cpu0.iq.FU_type_0::SimdReduceAlu             0      0.00%     56.44% # Type of FU issued
system.cpu0.iq.FU_type_0::SimdReduceCmp             0      0.00%     56.44% # Type of FU issued
system.cpu0.iq.FU_type_0::SimdFloatReduceAdd            0      0.00%     56.44% # Type of FU issued
system.cpu0.iq.FU_type_0::SimdFloatReduceCmp            0      0.00%     56.44% # Type of FU issued
system.cpu0.iq.FU_type_0::SimdAes                   0      0.00%     56.44% # Type of FU issued
system.cpu0.iq.FU_type_0::SimdAesMix                0      0.00%     56.44% # Type of FU issued
system.cpu0.iq.FU_type_0::SimdSha1Hash              0      0.00%     56.44% # Type of FU issued
system.cpu0.iq.FU_type_0::SimdSha1Hash2             0      0.00%     56.44% # Type of FU issued
system.cpu0.iq.FU_type_0::SimdSha256Hash            0      0.00%     56.44% # Type of FU issued
system.cpu0.iq.FU_type_0::SimdSha256Hash2            0      0.00%     56.44% # Type of FU issued
system.cpu0.iq.FU_type_0::SimdShaSigma2             0      0.00%     56.44% # Type of FU issued
system.cpu0.iq.FU_type_0::SimdShaSigma3             0      0.00%     56.44% # Type of FU issued
system.cpu0.iq.FU_type_0::SimdPredAlu               0      0.00%     56.44% # Type of FU issued
system.cpu0.iq.FU_type_0::MemRead           481424600     30.86%     87.30% # Type of FU issued
system.cpu0.iq.FU_type_0::MemWrite          198051088     12.70%    100.00% # Type of FU issued
system.cpu0.iq.FU_type_0::FloatMemRead              9      0.00%    100.00% # Type of FU issued
system.cpu0.iq.FU_type_0::FloatMemWrite            20      0.00%    100.00% # Type of FU issued
system.cpu0.iq.FU_type_0::IprAccess                 0      0.00%    100.00% # Type of FU issued
system.cpu0.iq.FU_type_0::InstPrefetch              0      0.00%    100.00% # Type of FU issued
system.cpu0.iq.FU_type_0::total            1559931275                       # Type of FU issued
system.cpu0.iq.fp_alu_accesses                     55                       # Number of floating point alu accesses
system.cpu0.iq.fp_inst_queue_reads                106                       # Number of floating instruction queue reads
system.cpu0.iq.fp_inst_queue_wakeup_accesses           51                       # Number of floating instruction queue wakeup accesses
system.cpu0.iq.fp_inst_queue_writes                52                       # Number of floating instruction queue writes
system.cpu0.iq.fu_busy_cnt                    5472032                       # FU busy when requested
system.cpu0.iq.fu_busy_rate                  0.003508                       # FU busy rate (busy events/executed inst)
system.cpu0.iq.fu_full::No_OpClass                  0      0.00%      0.00% # attempts to use FU when none available
system.cpu0.iq.fu_full::IntAlu                 987852     18.05%     18.05% # attempts to use FU when none available
system.cpu0.iq.fu_full::IntMult                  2754      0.05%     18.10% # attempts to use FU when none available
system.cpu0.iq.fu_full::IntDiv                 985485     18.01%     36.11% # attempts to use FU when none available
system.cpu0.iq.fu_full::FloatAdd                    0      0.00%     36.11% # attempts to use FU when none available
system.cpu0.iq.fu_full::FloatCmp                    0      0.00%     36.11% # attempts to use FU when none available
system.cpu0.iq.fu_full::FloatCvt                    0      0.00%     36.11% # attempts to use FU when none available
system.cpu0.iq.fu_full::FloatMult                   0      0.00%     36.11% # attempts to use FU when none available
system.cpu0.iq.fu_full::FloatMultAcc                0      0.00%     36.11% # attempts to use FU when none available
system.cpu0.iq.fu_full::FloatDiv                    0      0.00%     36.11% # attempts to use FU when none available
system.cpu0.iq.fu_full::FloatMisc                   0      0.00%     36.11% # attempts to use FU when none available
system.cpu0.iq.fu_full::FloatSqrt                   0      0.00%     36.11% # attempts to use FU when none available
system.cpu0.iq.fu_full::SimdAdd                     0      0.00%     36.11% # attempts to use FU when none available
system.cpu0.iq.fu_full::SimdAddAcc                  0      0.00%     36.11% # attempts to use FU when none available
system.cpu0.iq.fu_full::SimdAlu                     0      0.00%     36.11% # attempts to use FU when none available
system.cpu0.iq.fu_full::SimdCmp                     0      0.00%     36.11% # attempts to use FU when none available
system.cpu0.iq.fu_full::SimdCvt                     0      0.00%     36.11% # attempts to use FU when none available
system.cpu0.iq.fu_full::SimdMisc                    0      0.00%     36.11% # attempts to use FU when none available
system.cpu0.iq.fu_full::SimdMult                    0      0.00%     36.11% # attempts to use FU when none available
system.cpu0.iq.fu_full::SimdMultAcc                 0      0.00%     36.11% # attempts to use FU when none available
system.cpu0.iq.fu_full::SimdShift                   0      0.00%     36.11% # attempts to use FU when none available
system.cpu0.iq.fu_full::SimdShiftAcc                0      0.00%     36.11% # attempts to use FU when none available
system.cpu0.iq.fu_full::SimdDiv                     0      0.00%     36.11% # attempts to use FU when none available
system.cpu0.iq.fu_full::SimdSqrt                    0      0.00%     36.11% # attempts to use FU when none available
system.cpu0.iq.fu_full::SimdFloatAdd                0      0.00%     36.11% # attempts to use FU when none available
system.cpu0.iq.fu_full::SimdFloatAlu                0      0.00%     36.11% # attempts to use FU when none available
system.cpu0.iq.fu_full::SimdFloatCmp                0      0.00%     36.11% # attempts to use FU when none available
system.cpu0.iq.fu_full::SimdFloatCvt                0      0.00%     36.11% # attempts to use FU when none available
system.cpu0.iq.fu_full::SimdFloatDiv                0      0.00%     36.11% # attempts to use FU when none available
system.cpu0.iq.fu_full::SimdFloatMisc               0      0.00%     36.11% # attempts to use FU when none available
system.cpu0.iq.fu_full::SimdFloatMult               0      0.00%     36.11% # attempts to use FU when none available
system.cpu0.iq.fu_full::SimdFloatMultAcc            0      0.00%     36.11% # attempts to use FU when none available
system.cpu0.iq.fu_full::SimdFloatSqrt               0      0.00%     36.11% # attempts to use FU when none available
system.cpu0.iq.fu_full::SimdReduceAdd               0      0.00%     36.11% # attempts to use FU when none available
system.cpu0.iq.fu_full::SimdReduceAlu               0      0.00%     36.11% # attempts to use FU when none available
system.cpu0.iq.fu_full::SimdReduceCmp               0      0.00%     36.11% # attempts to use FU when none available
system.cpu0.iq.fu_full::SimdFloatReduceAdd            0      0.00%     36.11% # attempts to use FU when none available
system.cpu0.iq.fu_full::SimdFloatReduceCmp            0      0.00%     36.11% # attempts to use FU when none available
system.cpu0.iq.fu_full::SimdAes                     0      0.00%     36.11% # attempts to use FU when none available
system.cpu0.iq.fu_full::SimdAesMix                  0      0.00%     36.11% # attempts to use FU when none available
system.cpu0.iq.fu_full::SimdSha1Hash                0      0.00%     36.11% # attempts to use FU when none available
system.cpu0.iq.fu_full::SimdSha1Hash2               0      0.00%     36.11% # attempts to use FU when none available
system.cpu0.iq.fu_full::SimdSha256Hash              0      0.00%     36.11% # attempts to use FU when none available
system.cpu0.iq.fu_full::SimdSha256Hash2             0      0.00%     36.11% # attempts to use FU when none available
system.cpu0.iq.fu_full::SimdShaSigma2               0      0.00%     36.11% # attempts to use FU when none available
system.cpu0.iq.fu_full::SimdShaSigma3               0      0.00%     36.11% # attempts to use FU when none available
system.cpu0.iq.fu_full::SimdPredAlu                 0      0.00%     36.11% # attempts to use FU when none available
system.cpu0.iq.fu_full::MemRead               2792997     51.04%     87.15% # attempts to use FU when none available
system.cpu0.iq.fu_full::MemWrite               702940     12.85%    100.00% # attempts to use FU when none available
system.cpu0.iq.fu_full::FloatMemRead                0      0.00%    100.00% # attempts to use FU when none available
system.cpu0.iq.fu_full::FloatMemWrite               4      0.00%    100.00% # attempts to use FU when none available
system.cpu0.iq.fu_full::IprAccess                   0      0.00%    100.00% # attempts to use FU when none available
system.cpu0.iq.fu_full::InstPrefetch                0      0.00%    100.00% # attempts to use FU when none available
system.cpu0.iq.int_alu_accesses            1561197590                       # Number of integer alu accesses
system.cpu0.iq.int_inst_queue_reads        5644349537                       # Number of integer instruction queue reads
system.cpu0.iq.int_inst_queue_wakeup_accesses   1537657022                       # Number of integer instruction queue wakeup accesses
system.cpu0.iq.int_inst_queue_writes       1734427032                       # Number of integer instruction queue writes
system.cpu0.iq.iqInstsAdded                1566037604                       # Number of instructions added to the IQ (excludes non-spec)
system.cpu0.iq.iqInstsIssued               1559931275                       # Number of instructions issued
system.cpu0.iq.iqNonSpecInstsAdded            6310362                       # Number of non-speculative instructions added to the IQ
system.cpu0.iq.iqSquashedInstsExamined      162062317                       # Number of squashed instructions iterated over during squash; mainly for profiling
system.cpu0.iq.iqSquashedInstsIssued           403600                       # Number of squashed instructions issued
system.cpu0.iq.iqSquashedNonSpecRemoved           570                       # Number of squashed non-spec instructions that were removed
system.cpu0.iq.iqSquashedOperandsExamined     37218757                       # Number of squashed operands that are examined and possibly removed from graph
system.cpu0.iq.issued_per_cycle::samples   2518611462                       # Number of insts issued each cycle
system.cpu0.iq.issued_per_cycle::mean        0.619362                       # Number of insts issued each cycle
system.cpu0.iq.issued_per_cycle::stdev       0.848000                       # Number of insts issued each cycle
system.cpu0.iq.issued_per_cycle::underflows            0      0.00%      0.00% # Number of insts issued each cycle
system.cpu0.iq.issued_per_cycle::0         1403770409     55.74%     55.74% # Number of insts issued each cycle
system.cpu0.iq.issued_per_cycle::1          773513687     30.71%     86.45% # Number of insts issued each cycle
system.cpu0.iq.issued_per_cycle::2          274763794     10.91%     97.36% # Number of insts issued each cycle
system.cpu0.iq.issued_per_cycle::3           43756367      1.74%     99.09% # Number of insts issued each cycle
system.cpu0.iq.issued_per_cycle::4           14885891      0.59%     99.69% # Number of insts issued each cycle
system.cpu0.iq.issued_per_cycle::5            2897772      0.12%     99.80% # Number of insts issued each cycle
system.cpu0.iq.issued_per_cycle::6            3901507      0.15%     99.96% # Number of insts issued each cycle
system.cpu0.iq.issued_per_cycle::7             796847      0.03%     99.99% # Number of insts issued each cycle
system.cpu0.iq.issued_per_cycle::8             325188      0.01%    100.00% # Number of insts issued each cycle
system.cpu0.iq.issued_per_cycle::overflows            0      0.00%    100.00% # Number of insts issued each cycle
system.cpu0.iq.issued_per_cycle::min_value            0                       # Number of insts issued each cycle
system.cpu0.iq.issued_per_cycle::max_value            8                       # Number of insts issued each cycle
system.cpu0.iq.issued_per_cycle::total     2518611462                       # Number of insts issued each cycle
system.cpu0.iq.rate                          0.539844                       # Inst issue rate
system.cpu0.iq.vec_alu_accesses                     0                       # Number of vector alu accesses
system.cpu0.iq.vec_inst_queue_reads                 0                       # Number of vector instruction queue reads
system.cpu0.iq.vec_inst_queue_wakeup_accesses            0                       # Number of vector instruction queue wakeup accesses
system.cpu0.iq.vec_inst_queue_writes                0                       # Number of vector instruction queue writes
system.cpu0.itb.accesses                            0                       # DTB accesses
system.cpu0.itb.hits                                0                       # DTB hits
system.cpu0.itb.misses                              0                       # DTB misses
system.cpu0.itb.read_accesses                       0                       # DTB read accesses
system.cpu0.itb.read_hits                           0                       # DTB read hits
system.cpu0.itb.read_misses                         0                       # DTB read misses
system.cpu0.itb.write_accesses                      0                       # DTB write accesses
system.cpu0.itb.write_hits                          0                       # DTB write hits
system.cpu0.itb.write_misses                        0                       # DTB write misses
system.cpu0.memDep0.conflictingLoads         22350581                       # Number of conflicting loads.
system.cpu0.memDep0.conflictingStores        11721685                       # Number of conflicting stores.
system.cpu0.memDep0.insertedLoads           477065111                       # Number of loads inserted to the mem dependence unit.
system.cpu0.memDep0.insertedStores          205107439                       # Number of stores inserted to the mem dependence unit.
system.cpu0.misc_regfile_reads                   1893                       # number of misc regfile reads
system.cpu0.misc_regfile_writes                    22                       # number of misc regfile writes
system.cpu0.numCycles                      2889594678                       # number of cpu cycles simulated
system.cpu0.numWorkItemsCompleted                   0                       # number of work items this cpu completed
system.cpu0.numWorkItemsStarted                     0                       # number of work items this cpu started
system.cpu0.quiesceCycles                    12111582                       # Total number of cycles that CPU has spent quiesced or waiting for an interrupt
system.cpu0.rename.BlockCycles              449777210                       # Number of cycles rename is blocking
system.cpu0.rename.CommittedMaps            911010805                       # Number of HB maps that are committed
system.cpu0.rename.IQFullEvents              16068789                       # Number of times rename has blocked due to IQ full
system.cpu0.rename.IdleCycles               850876106                       # Number of cycles rename is idle
system.cpu0.rename.LQFullEvents              32599163                       # Number of times rename has blocked due to LQ full
system.cpu0.rename.ROBFullEvents                34650                       # Number of times rename has blocked due to ROB full
system.cpu0.rename.RenameLookups           1963748595                       # Number of register rename lookups that rename has made
system.cpu0.rename.RenamedInsts            1587639989                       # Number of instructions processed by rename
system.cpu0.rename.RenamedOperands         1026960650                       # Number of destination operands rename has renamed
system.cpu0.rename.RunCycles               1105936908                       # Number of cycles rename is running
system.cpu0.rename.SQFullEvents              54464514                       # Number of times rename has blocked due to SQ full
system.cpu0.rename.SquashCycles               8191880                       # Number of cycles rename is squashing
system.cpu0.rename.UnblockCycles            103659435                       # Number of cycles rename is unblocking
system.cpu0.rename.UndoneMaps               115949785                       # Number of HB maps that are undone due to squashing
system.cpu0.rename.fp_rename_lookups               44                       # Number of floating rename lookups
system.cpu0.rename.int_rename_lookups      1963748551                       # Number of integer rename lookups
system.cpu0.rename.serializeStallCycles        169923                       # count of cycles rename stalled for serializing inst
system.cpu0.rename.serializingInsts              5920                       # count of serializing insts renamed
system.cpu0.rename.skidInsts                 36223039                       # count of insts added to the skid buffer
system.cpu0.rename.tempSerializingInsts          5911                       # count of temporary serializing insts renamed
system.cpu0.rob.rob_reads                  4014511589                       # The number of ROB reads
system.cpu0.rob.rob_writes                 3170664330                       # The number of ROB writes
system.cpu0.timesIdled                       26693439                       # Number of times that the entire CPU went into an idle state and unscheduled itself
system.cpu0.workload.numSyscalls                 1860                       # Number of system calls
system.cpu1.branchPred.BTBCorrect                   0                       # Number of correct BTB predictions (this stat may not work properly.
system.cpu1.branchPred.BTBHitPct            81.094947                       # BTB Hit Percentage
system.cpu1.branchPred.BTBHits               24955516                       # Number of BTB hits
system.cpu1.branchPred.BTBLookups            30773207                       # Number of BTB lookups
system.cpu1.branchPred.RASInCorrect                 0                       # Number of incorrect RAS predictions.
system.cpu1.branchPred.condIncorrect          2879395                       # Number of conditional branches incorrect
system.cpu1.branchPred.condPredicted         33228858                       # Number of conditional branches predicted
system.cpu1.branchPred.indirectHits           2164854                       # Number of indirect target hits.
system.cpu1.branchPred.indirectLookups        2179322                       # Number of indirect predictor lookups.
system.cpu1.branchPred.indirectMisses           14468                       # Number of indirect misses.
system.cpu1.branchPred.lookups               42098370                       # Number of BP lookups
system.cpu1.branchPred.usedRAS                      0                       # Number of times the RAS was used to get a target.
system.cpu1.branchPredindirectMispredicted       148188                       # Number of mispredicted indirect branches.
system.cpu1.commit.amos                       2100007                       # Number of atomic instructions committed
system.cpu1.commit.branchMispredicts          1948025                       # The number of times a branch was mispredicted
system.cpu1.commit.branches                  34312163                       # Number of branches committed
system.cpu1.commit.bw_lim_events              6319623                       # number cycles where commit BW limit reached
system.cpu1.commit.commitNonSpecStalls        6300706                       # The number of times commit has been forced to stall to communicate backwards
system.cpu1.commit.commitSquashedInsts       18510482                       # The number of squashed insts skipped by commit
system.cpu1.commit.committedInsts           158001464                       # Number of instructions committed
system.cpu1.commit.committedOps             160101651                       # Number of ops (including micro ops) committed
system.cpu1.commit.committed_per_cycle::samples    575217248                       # Number of insts commited each cycle
system.cpu1.commit.committed_per_cycle::mean     0.278332                       # Number of insts commited each cycle
system.cpu1.commit.committed_per_cycle::stdev     1.078885                       # Number of insts commited each cycle
system.cpu1.commit.committed_per_cycle::underflows            0      0.00%      0.00% # Number of insts commited each cycle
system.cpu1.commit.committed_per_cycle::0    511023222     88.84%     88.84% # Number of insts commited each cycle
system.cpu1.commit.committed_per_cycle::1     32432971      5.64%     94.48% # Number of insts commited each cycle
system.cpu1.commit.committed_per_cycle::2     12440467      2.16%     96.64% # Number of insts commited each cycle
system.cpu1.commit.committed_per_cycle::3      5942891      1.03%     97.67% # Number of insts commited each cycle
system.cpu1.commit.committed_per_cycle::4      3070696      0.53%     98.21% # Number of insts commited each cycle
system.cpu1.commit.committed_per_cycle::5      2380571      0.41%     98.62% # Number of insts commited each cycle
system.cpu1.commit.committed_per_cycle::6      1031199      0.18%     98.80% # Number of insts commited each cycle
system.cpu1.commit.committed_per_cycle::7       575608      0.10%     98.90% # Number of insts commited each cycle
system.cpu1.commit.committed_per_cycle::8      6319623      1.10%    100.00% # Number of insts commited each cycle
system.cpu1.commit.committed_per_cycle::overflows            0      0.00%    100.00% # Number of insts commited each cycle
system.cpu1.commit.committed_per_cycle::min_value            0                       # Number of insts commited each cycle
system.cpu1.commit.committed_per_cycle::max_value            8                       # Number of insts commited each cycle
system.cpu1.commit.committed_per_cycle::total    575217248                       # Number of insts commited each cycle
system.cpu1.commit.fp_insts                        12                       # Number of committed floating point instructions.
system.cpu1.commit.function_calls             3695447                       # Number of function calls committed.
system.cpu1.commit.int_insts                152794764                       # Number of committed integer instructions.
system.cpu1.commit.loads                     38886176                       # Number of loads committed
system.cpu1.commit.membars                    4200137                       # Number of memory barriers committed
system.cpu1.commit.op_class_0::No_OpClass      4200137      2.62%      2.62% # Class of committed instruction
system.cpu1.commit.op_class_0::IntAlu        98338583     61.42%     64.05% # Class of committed instruction
system.cpu1.commit.op_class_0::IntMult         265371      0.17%     64.21% # Class of committed instruction
system.cpu1.commit.op_class_0::IntDiv          526963      0.33%     64.54% # Class of committed instruction
system.cpu1.commit.op_class_0::FloatAdd             0      0.00%     64.54% # Class of committed instruction
system.cpu1.commit.op_class_0::FloatCmp             0      0.00%     64.54% # Class of committed instruction
system.cpu1.commit.op_class_0::FloatCvt             0      0.00%     64.54% # Class of committed instruction
system.cpu1.commit.op_class_0::FloatMult            0      0.00%     64.54% # Class of committed instruction
system.cpu1.commit.op_class_0::FloatMultAcc            0      0.00%     64.54% # Class of committed instruction
system.cpu1.commit.op_class_0::FloatDiv             0      0.00%     64.54% # Class of committed instruction
system.cpu1.commit.op_class_0::FloatMisc            0      0.00%     64.54% # Class of committed instruction
system.cpu1.commit.op_class_0::FloatSqrt            0      0.00%     64.54% # Class of committed instruction
system.cpu1.commit.op_class_0::SimdAdd              0      0.00%     64.54% # Class of committed instruction
system.cpu1.commit.op_class_0::SimdAddAcc            0      0.00%     64.54% # Class of committed instruction
system.cpu1.commit.op_class_0::SimdAlu              0      0.00%     64.54% # Class of committed instruction
system.cpu1.commit.op_class_0::SimdCmp              0      0.00%     64.54% # Class of committed instruction
system.cpu1.commit.op_class_0::SimdCvt              0      0.00%     64.54% # Class of committed instruction
system.cpu1.commit.op_class_0::SimdMisc             0      0.00%     64.54% # Class of committed instruction
system.cpu1.commit.op_class_0::SimdMult             0      0.00%     64.54% # Class of committed instruction
system.cpu1.commit.op_class_0::SimdMultAcc            0      0.00%     64.54% # Class of committed instruction
system.cpu1.commit.op_class_0::SimdShift            0      0.00%     64.54% # Class of committed instruction
system.cpu1.commit.op_class_0::SimdShiftAcc            0      0.00%     64.54% # Class of committed instruction
system.cpu1.commit.op_class_0::SimdDiv              0      0.00%     64.54% # Class of committed instruction
system.cpu1.commit.op_class_0::SimdSqrt             0      0.00%     64.54% # Class of committed instruction
system.cpu1.commit.op_class_0::SimdFloatAdd            0      0.00%     64.54% # Class of committed instruction
system.cpu1.commit.op_class_0::SimdFloatAlu            0      0.00%     64.54% # Class of committed instruction
system.cpu1.commit.op_class_0::SimdFloatCmp            0      0.00%     64.54% # Class of committed instruction
system.cpu1.commit.op_class_0::SimdFloatCvt            0      0.00%     64.54% # Class of committed instruction
system.cpu1.commit.op_class_0::SimdFloatDiv            0      0.00%     64.54% # Class of committed instruction
system.cpu1.commit.op_class_0::SimdFloatMisc            0      0.00%     64.54% # Class of committed instruction
system.cpu1.commit.op_class_0::SimdFloatMult            0      0.00%     64.54% # Class of committed instruction
system.cpu1.commit.op_class_0::SimdFloatMultAcc            0      0.00%     64.54% # Class of committed instruction
system.cpu1.commit.op_class_0::SimdFloatSqrt            0      0.00%     64.54% # Class of committed instruction
system.cpu1.commit.op_class_0::SimdReduceAdd            0      0.00%     64.54% # Class of committed instruction
system.cpu1.commit.op_class_0::SimdReduceAlu            0      0.00%     64.54% # Class of committed instruction
system.cpu1.commit.op_class_0::SimdReduceCmp            0      0.00%     64.54% # Class of committed instruction
system.cpu1.commit.op_class_0::SimdFloatReduceAdd            0      0.00%     64.54% # Class of committed instruction
system.cpu1.commit.op_class_0::SimdFloatReduceCmp            0      0.00%     64.54% # Class of committed instruction
system.cpu1.commit.op_class_0::SimdAes              0      0.00%     64.54% # Class of committed instruction
system.cpu1.commit.op_class_0::SimdAesMix            0      0.00%     64.54% # Class of committed instruction
system.cpu1.commit.op_class_0::SimdSha1Hash            0      0.00%     64.54% # Class of committed instruction
system.cpu1.commit.op_class_0::SimdSha1Hash2            0      0.00%     64.54% # Class of committed instruction
system.cpu1.commit.op_class_0::SimdSha256Hash            0      0.00%     64.54% # Class of committed instruction
system.cpu1.commit.op_class_0::SimdSha256Hash2            0      0.00%     64.54% # Class of committed instruction
system.cpu1.commit.op_class_0::SimdShaSigma2            0      0.00%     64.54% # Class of committed instruction
system.cpu1.commit.op_class_0::SimdShaSigma3            0      0.00%     64.54% # Class of committed instruction
system.cpu1.commit.op_class_0::SimdPredAlu            0      0.00%     64.54% # Class of committed instruction
system.cpu1.commit.op_class_0::MemRead       40986183     25.60%     90.14% # Class of committed instruction
system.cpu1.commit.op_class_0::MemWrite      15784402      9.86%    100.00% # Class of committed instruction
system.cpu1.commit.op_class_0::FloatMemRead            0      0.00%    100.00% # Class of committed instruction
system.cpu1.commit.op_class_0::FloatMemWrite           12      0.00%    100.00% # Class of committed instruction
system.cpu1.commit.op_class_0::IprAccess            0      0.00%    100.00% # Class of committed instruction
system.cpu1.commit.op_class_0::InstPrefetch            0      0.00%    100.00% # Class of committed instruction
system.cpu1.commit.op_class_0::total        160101651                       # Class of committed instruction
system.cpu1.commit.refs                      56770597                       # Number of memory references committed
system.cpu1.commit.swp_count                        0                       # Number of s/w prefetches committed
system.cpu1.commit.vec_insts                        0                       # Number of committed Vector instructions.
system.cpu1.committedInsts                  158001464                       # Number of Instructions Simulated
system.cpu1.committedOps                    160101651                       # Number of Ops (including micro ops) Simulated
system.cpu1.cpi                              3.695288                       # CPI: Cycles Per Instruction
system.cpu1.cpi_total                        3.695288                       # CPI: Total CPI of All Threads
system.cpu1.decode.BlockedCycles            438517529                       # Number of cycles decode is blocked
system.cpu1.decode.BranchMispred               947690                       # Number of times decode detected a branch misprediction
system.cpu1.decode.BranchResolved            23491612                       # Number of times decode resolved a branch
system.cpu1.decode.DecodedInsts             185983807                       # Number of instructions handled by decode
system.cpu1.decode.IdleCycles                42020678                       # Number of cycles decode is idle
system.cpu1.decode.RunCycles                 90766482                       # Number of cycles decode is running
system.cpu1.decode.SquashCycles               1949436                       # Number of cycles decode is squashing
system.cpu1.decode.SquashedInsts              2350128                       # Number of squashed instructions handled by decode
system.cpu1.decode.UnblockCycles              5740035                       # Number of cycles decode is unblocking
system.cpu1.dtb.accesses                            0                       # DTB accesses
system.cpu1.dtb.hits                                0                       # DTB hits
system.cpu1.dtb.misses                              0                       # DTB misses
system.cpu1.dtb.read_accesses                       0                       # DTB read accesses
system.cpu1.dtb.read_hits                           0                       # DTB read hits
system.cpu1.dtb.read_misses                         0                       # DTB read misses
system.cpu1.dtb.write_accesses                      0                       # DTB write accesses
system.cpu1.dtb.write_hits                          0                       # DTB write hits
system.cpu1.dtb.write_misses                        0                       # DTB write misses
system.cpu1.fetch.Branches                   42098370                       # Number of branches that fetch encountered
system.cpu1.fetch.CacheLines                 33275567                       # Number of cache lines fetched
system.cpu1.fetch.Cycles                    531137112                       # Number of cycles fetch has run and was not squashing or blocked
system.cpu1.fetch.IcacheSquashes               778856                       # Number of outstanding Icache misses that were squashed
system.cpu1.fetch.Insts                     192786431                       # Number of instructions fetch has processed
system.cpu1.fetch.MiscStallCycles                   1                       # Number of cycles fetch has spent waiting on interrupts, or bad addresses, or out of MSHRs
system.cpu1.fetch.SquashCycles                5761612                       # Number of cycles fetch has spent squashing
system.cpu1.fetch.branchRate                 0.072103                       # Number of branch fetches per cycle
system.cpu1.fetch.icacheStallCycles          44976241                       # Number of cycles fetch is stalled on an Icache miss
system.cpu1.fetch.predictedBranches          27120370                       # Number of branches that fetch has predicted taken
system.cpu1.fetch.rate                       0.330192                       # Number of inst fetches per cycle
system.cpu1.fetch.rateDist::samples         578994160                       # Number of instructions fetched each cycle (Total)
system.cpu1.fetch.rateDist::mean             0.336597                       # Number of instructions fetched each cycle (Total)
system.cpu1.fetch.rateDist::stdev            0.761783                       # Number of instructions fetched each cycle (Total)
system.cpu1.fetch.rateDist::underflows              0      0.00%      0.00% # Number of instructions fetched each cycle (Total)
system.cpu1.fetch.rateDist::0               450253042     77.76%     77.76% # Number of instructions fetched each cycle (Total)
system.cpu1.fetch.rateDist::1                86827407     15.00%     92.76% # Number of instructions fetched each cycle (Total)
system.cpu1.fetch.rateDist::2                26402465      4.56%     97.32% # Number of instructions fetched each cycle (Total)
system.cpu1.fetch.rateDist::3                10347345      1.79%     99.11% # Number of instructions fetched each cycle (Total)
system.cpu1.fetch.rateDist::4                 2302064      0.40%     99.51% # Number of instructions fetched each cycle (Total)
system.cpu1.fetch.rateDist::5                 2166899      0.37%     99.88% # Number of instructions fetched each cycle (Total)
system.cpu1.fetch.rateDist::6                  694490      0.12%    100.00% # Number of instructions fetched each cycle (Total)
system.cpu1.fetch.rateDist::7                     207      0.00%    100.00% # Number of instructions fetched each cycle (Total)
system.cpu1.fetch.rateDist::8                     241      0.00%    100.00% # Number of instructions fetched each cycle (Total)
system.cpu1.fetch.rateDist::overflows               0      0.00%    100.00% # Number of instructions fetched each cycle (Total)
system.cpu1.fetch.rateDist::min_value               0                       # Number of instructions fetched each cycle (Total)
system.cpu1.fetch.rateDist::max_value               8                       # Number of instructions fetched each cycle (Total)
system.cpu1.fetch.rateDist::total           578994160                       # Number of instructions fetched each cycle (Total)
system.cpu1.fp_regfile_reads                       12                       # number of floating regfile reads
system.cpu1.idleCycles                        4866819                       # Total number of cycles that the CPU has spent unscheduled due to idling
system.cpu1.iew.branchMispredicts             2022943                       # Number of branch mispredicts detected at execute
system.cpu1.iew.exec_branches                37175020                       # Number of branches executed
system.cpu1.iew.exec_nop                            0                       # number of nop insts executed
system.cpu1.iew.exec_rate                    0.296619                       # Inst execution rate
system.cpu1.iew.exec_refs                    61472952                       # number of memory reference insts executed
system.cpu1.iew.exec_stores                  18484554                       # Number of stores executed
system.cpu1.iew.exec_swp                            0                       # number of swp insts executed
system.cpu1.iew.iewBlockCycles              344870404                       # Number of cycles IEW is blocking
system.cpu1.iew.iewDispLoadInsts             43758881                       # Number of dispatched load instructions
system.cpu1.iew.iewDispNonSpecInsts           2100681                       # Number of dispatched non-speculative instructions
system.cpu1.iew.iewDispSquashedInsts          1773435                       # Number of squashed instructions skipped by dispatch
system.cpu1.iew.iewDispStoreInsts            19066151                       # Number of dispatched store instructions
system.cpu1.iew.iewDispatchedInsts          178567415                       # Number of instructions dispatched to IQ
system.cpu1.iew.iewExecLoadInsts             42988398                       # Number of load instructions executed
system.cpu1.iew.iewExecSquashedInsts          1630804                       # Number of squashed instructions skipped in execute
system.cpu1.iew.iewExecutedInsts            173184492                       # Number of executed instructions
system.cpu1.iew.iewIQFullEvents               1252518                       # Number of times the IQ has become full, causing a stall
system.cpu1.iew.iewIdleCycles                       0                       # Number of cycles IEW is idle
system.cpu1.iew.iewLSQFullEvents              9416546                       # Number of times the LSQ has become full, causing a stall
system.cpu1.iew.iewSquashCycles               1949436                       # Number of cycles IEW is squashing
system.cpu1.iew.iewUnblockCycles             13406789                       # Number of cycles IEW is unblocking
system.cpu1.iew.lsq.thread0.blockedLoads            0                       # Number of blocked loads due to partial load-store forwarding
system.cpu1.iew.lsq.thread0.cacheBlocked       113041                       # Number of times an access to memory failed due to the cache being blocked
system.cpu1.iew.lsq.thread0.forwLoads         1550385                       # Number of loads that had data forwarded from stores
system.cpu1.iew.lsq.thread0.ignoredResponses        29289                       # Number of memory responses ignored because the instruction is squashed
system.cpu1.iew.lsq.thread0.invAddrLoads            0                       # Number of loads ignored due to an invalid address
system.cpu1.iew.lsq.thread0.invAddrSwpfs            0                       # Number of software prefetches ignored due to an invalid address
system.cpu1.iew.lsq.thread0.memOrderViolation         1891                       # Number of memory ordering violations
system.cpu1.iew.lsq.thread0.rescheduledLoads         3647                       # Number of loads that were rescheduled
system.cpu1.iew.lsq.thread0.squashedLoads      4872705                       # Number of loads squashed
system.cpu1.iew.lsq.thread0.squashedStores      1181730                       # Number of stores squashed
system.cpu1.iew.memOrderViolationEvents          1891                       # Number of memory order violations
system.cpu1.iew.predictedNotTakenIncorrect       417664                       # Number of branches that were predicted not taken incorrectly
system.cpu1.iew.predictedTakenIncorrect       1605279                       # Number of branches that were predicted taken incorrectly
system.cpu1.iew.wb_consumers                 95669698                       # num instructions consuming a value
system.cpu1.iew.wb_count                    171737766                       # cumulative count of insts written-back
system.cpu1.iew.wb_fanout                    0.812696                       # average fanout of values written-back
system.cpu1.iew.wb_producers                 77750362                       # num instructions producing a value
system.cpu1.iew.wb_rate                      0.294142                       # insts written-back per cycle
system.cpu1.iew.wb_sent                     171816911                       # cumulative count of insts sent to commit
system.cpu1.int_regfile_reads               218673807                       # number of integer regfile reads
system.cpu1.int_regfile_writes              115960342                       # number of integer regfile writes
system.cpu1.ipc                              0.270615                       # IPC: Instructions Per Cycle
system.cpu1.ipc_total                        0.270615                       # IPC: Total IPC of All Threads
system.cpu1.iq.FU_type_0::No_OpClass          4200239      2.40%      2.40% # Type of FU issued
system.cpu1.iq.FU_type_0::IntAlu            107591728     61.55%     63.95% # Type of FU issued
system.cpu1.iq.FU_type_0::IntMult              265409      0.15%     64.10% # Type of FU issued
system.cpu1.iq.FU_type_0::IntDiv               527029      0.30%     64.40% # Type of FU issued
system.cpu1.iq.FU_type_0::FloatAdd                  0      0.00%     64.40% # Type of FU issued
system.cpu1.iq.FU_type_0::FloatCmp                  0      0.00%     64.40% # Type of FU issued
system.cpu1.iq.FU_type_0::FloatCvt                  0      0.00%     64.40% # Type of FU issued
system.cpu1.iq.FU_type_0::FloatMult                 0      0.00%     64.40% # Type of FU issued
system.cpu1.iq.FU_type_0::FloatMultAcc              0      0.00%     64.40% # Type of FU issued
system.cpu1.iq.FU_type_0::FloatDiv                  0      0.00%     64.40% # Type of FU issued
system.cpu1.iq.FU_type_0::FloatMisc                 0      0.00%     64.40% # Type of FU issued
system.cpu1.iq.FU_type_0::FloatSqrt                 0      0.00%     64.40% # Type of FU issued
system.cpu1.iq.FU_type_0::SimdAdd                   0      0.00%     64.40% # Type of FU issued
system.cpu1.iq.FU_type_0::SimdAddAcc                0      0.00%     64.40% # Type of FU issued
system.cpu1.iq.FU_type_0::SimdAlu                   0      0.00%     64.40% # Type of FU issued
system.cpu1.iq.FU_type_0::SimdCmp                   0      0.00%     64.40% # Type of FU issued
system.cpu1.iq.FU_type_0::SimdCvt                   0      0.00%     64.40% # Type of FU issued
system.cpu1.iq.FU_type_0::SimdMisc                  0      0.00%     64.40% # Type of FU issued
system.cpu1.iq.FU_type_0::SimdMult                  0      0.00%     64.40% # Type of FU issued
system.cpu1.iq.FU_type_0::SimdMultAcc               0      0.00%     64.40% # Type of FU issued
system.cpu1.iq.FU_type_0::SimdShift                 0      0.00%     64.40% # Type of FU issued
system.cpu1.iq.FU_type_0::SimdShiftAcc              0      0.00%     64.40% # Type of FU issued
system.cpu1.iq.FU_type_0::SimdDiv                   0      0.00%     64.40% # Type of FU issued
system.cpu1.iq.FU_type_0::SimdSqrt                  0      0.00%     64.40% # Type of FU issued
system.cpu1.iq.FU_type_0::SimdFloatAdd              0      0.00%     64.40% # Type of FU issued
system.cpu1.iq.FU_type_0::SimdFloatAlu              0      0.00%     64.40% # Type of FU issued
system.cpu1.iq.FU_type_0::SimdFloatCmp              0      0.00%     64.40% # Type of FU issued
system.cpu1.iq.FU_type_0::SimdFloatCvt              0      0.00%     64.40% # Type of FU issued
system.cpu1.iq.FU_type_0::SimdFloatDiv              0      0.00%     64.40% # Type of FU issued
system.cpu1.iq.FU_type_0::SimdFloatMisc             0      0.00%     64.40% # Type of FU issued
system.cpu1.iq.FU_type_0::SimdFloatMult             0      0.00%     64.40% # Type of FU issued
system.cpu1.iq.FU_type_0::SimdFloatMultAcc            0      0.00%     64.40% # Type of FU issued
system.cpu1.iq.FU_type_0::SimdFloatSqrt             0      0.00%     64.40% # Type of FU issued
system.cpu1.iq.FU_type_0::SimdReduceAdd             0      0.00%     64.40% # Type of FU issued
system.cpu1.iq.FU_type_0::SimdReduceAlu             0      0.00%     64.40% # Type of FU issued
system.cpu1.iq.FU_type_0::SimdReduceCmp             0      0.00%     64.40% # Type of FU issued
system.cpu1.iq.FU_type_0::SimdFloatReduceAdd            0      0.00%     64.40% # Type of FU issued
system.cpu1.iq.FU_type_0::SimdFloatReduceCmp            0      0.00%     64.40% # Type of FU issued
system.cpu1.iq.FU_type_0::SimdAes                   0      0.00%     64.40% # Type of FU issued
system.cpu1.iq.FU_type_0::SimdAesMix                0      0.00%     64.40% # Type of FU issued
system.cpu1.iq.FU_type_0::SimdSha1Hash              0      0.00%     64.40% # Type of FU issued
system.cpu1.iq.FU_type_0::SimdSha1Hash2             0      0.00%     64.40% # Type of FU issued
system.cpu1.iq.FU_type_0::SimdSha256Hash            0      0.00%     64.40% # Type of FU issued
system.cpu1.iq.FU_type_0::SimdSha256Hash2            0      0.00%     64.40% # Type of FU issued
system.cpu1.iq.FU_type_0::SimdShaSigma2             0      0.00%     64.40% # Type of FU issued
system.cpu1.iq.FU_type_0::SimdShaSigma3             0      0.00%     64.40% # Type of FU issued
system.cpu1.iq.FU_type_0::SimdPredAlu               0      0.00%     64.40% # Type of FU issued
system.cpu1.iq.FU_type_0::MemRead            45760214     26.18%     90.58% # Type of FU issued
system.cpu1.iq.FU_type_0::MemWrite           16470665      9.42%    100.00% # Type of FU issued
system.cpu1.iq.FU_type_0::FloatMemRead              0      0.00%    100.00% # Type of FU issued
system.cpu1.iq.FU_type_0::FloatMemWrite            12      0.00%    100.00% # Type of FU issued
system.cpu1.iq.FU_type_0::IprAccess                 0      0.00%    100.00% # Type of FU issued
system.cpu1.iq.FU_type_0::InstPrefetch              0      0.00%    100.00% # Type of FU issued
system.cpu1.iq.FU_type_0::total             174815296                       # Type of FU issued
system.cpu1.iq.fp_alu_accesses                     16                       # Number of floating point alu accesses
system.cpu1.iq.fp_inst_queue_reads                 28                       # Number of floating instruction queue reads
system.cpu1.iq.fp_inst_queue_wakeup_accesses           12                       # Number of floating instruction queue wakeup accesses
system.cpu1.iq.fp_inst_queue_writes                12                       # Number of floating instruction queue writes
system.cpu1.iq.fu_busy_cnt                    4242632                       # FU busy when requested
system.cpu1.iq.fu_busy_rate                  0.024269                       # FU busy rate (busy events/executed inst)
system.cpu1.iq.fu_full::No_OpClass                  0      0.00%      0.00% # attempts to use FU when none available
system.cpu1.iq.fu_full::IntAlu                 734435     17.31%     17.31% # attempts to use FU when none available
system.cpu1.iq.fu_full::IntMult                  5116      0.12%     17.43% # attempts to use FU when none available
system.cpu1.iq.fu_full::IntDiv                 447477     10.55%     27.98% # attempts to use FU when none available
system.cpu1.iq.fu_full::FloatAdd                    0      0.00%     27.98% # attempts to use FU when none available
system.cpu1.iq.fu_full::FloatCmp                    0      0.00%     27.98% # attempts to use FU when none available
system.cpu1.iq.fu_full::FloatCvt                    0      0.00%     27.98% # attempts to use FU when none available
system.cpu1.iq.fu_full::FloatMult                   0      0.00%     27.98% # attempts to use FU when none available
system.cpu1.iq.fu_full::FloatMultAcc                0      0.00%     27.98% # attempts to use FU when none available
system.cpu1.iq.fu_full::FloatDiv                    0      0.00%     27.98% # attempts to use FU when none available
system.cpu1.iq.fu_full::FloatMisc                   0      0.00%     27.98% # attempts to use FU when none available
system.cpu1.iq.fu_full::FloatSqrt                   0      0.00%     27.98% # attempts to use FU when none available
system.cpu1.iq.fu_full::SimdAdd                     0      0.00%     27.98% # attempts to use FU when none available
system.cpu1.iq.fu_full::SimdAddAcc                  0      0.00%     27.98% # attempts to use FU when none available
system.cpu1.iq.fu_full::SimdAlu                     0      0.00%     27.98% # attempts to use FU when none available
system.cpu1.iq.fu_full::SimdCmp                     0      0.00%     27.98% # attempts to use FU when none available
system.cpu1.iq.fu_full::SimdCvt                     0      0.00%     27.98% # attempts to use FU when none available
system.cpu1.iq.fu_full::SimdMisc                    0      0.00%     27.98% # attempts to use FU when none available
system.cpu1.iq.fu_full::SimdMult                    0      0.00%     27.98% # attempts to use FU when none available
system.cpu1.iq.fu_full::SimdMultAcc                 0      0.00%     27.98% # attempts to use FU when none available
system.cpu1.iq.fu_full::SimdShift                   0      0.00%     27.98% # attempts to use FU when none available
system.cpu1.iq.fu_full::SimdShiftAcc                0      0.00%     27.98% # attempts to use FU when none available
system.cpu1.iq.fu_full::SimdDiv                     0      0.00%     27.98% # attempts to use FU when none available
system.cpu1.iq.fu_full::SimdSqrt                    0      0.00%     27.98% # attempts to use FU when none available
system.cpu1.iq.fu_full::SimdFloatAdd                0      0.00%     27.98% # attempts to use FU when none available
system.cpu1.iq.fu_full::SimdFloatAlu                0      0.00%     27.98% # attempts to use FU when none available
system.cpu1.iq.fu_full::SimdFloatCmp                0      0.00%     27.98% # attempts to use FU when none available
system.cpu1.iq.fu_full::SimdFloatCvt                0      0.00%     27.98% # attempts to use FU when none available
system.cpu1.iq.fu_full::SimdFloatDiv                0      0.00%     27.98% # attempts to use FU when none available
system.cpu1.iq.fu_full::SimdFloatMisc               0      0.00%     27.98% # attempts to use FU when none available
system.cpu1.iq.fu_full::SimdFloatMult               0      0.00%     27.98% # attempts to use FU when none available
system.cpu1.iq.fu_full::SimdFloatMultAcc            0      0.00%     27.98% # attempts to use FU when none available
system.cpu1.iq.fu_full::SimdFloatSqrt               0      0.00%     27.98% # attempts to use FU when none available
system.cpu1.iq.fu_full::SimdReduceAdd               0      0.00%     27.98% # attempts to use FU when none available
system.cpu1.iq.fu_full::SimdReduceAlu               0      0.00%     27.98% # attempts to use FU when none available
system.cpu1.iq.fu_full::SimdReduceCmp               0      0.00%     27.98% # attempts to use FU when none available
system.cpu1.iq.fu_full::SimdFloatReduceAdd            0      0.00%     27.98% # attempts to use FU when none available
system.cpu1.iq.fu_full::SimdFloatReduceCmp            0      0.00%     27.98% # attempts to use FU when none available
system.cpu1.iq.fu_full::SimdAes                     0      0.00%     27.98% # attempts to use FU when none available
system.cpu1.iq.fu_full::SimdAesMix                  0      0.00%     27.98% # attempts to use FU when none available
system.cpu1.iq.fu_full::SimdSha1Hash                0      0.00%     27.98% # attempts to use FU when none available
system.cpu1.iq.fu_full::SimdSha1Hash2               0      0.00%     27.98% # attempts to use FU when none available
system.cpu1.iq.fu_full::SimdSha256Hash              0      0.00%     27.98% # attempts to use FU when none available
system.cpu1.iq.fu_full::SimdSha256Hash2             0      0.00%     27.98% # attempts to use FU when none available
system.cpu1.iq.fu_full::SimdShaSigma2               0      0.00%     27.98% # attempts to use FU when none available
system.cpu1.iq.fu_full::SimdShaSigma3               0      0.00%     27.98% # attempts to use FU when none available
system.cpu1.iq.fu_full::SimdPredAlu                 0      0.00%     27.98% # attempts to use FU when none available
system.cpu1.iq.fu_full::MemRead               2410922     56.83%     84.80% # attempts to use FU when none available
system.cpu1.iq.fu_full::MemWrite               644678     15.20%    100.00% # attempts to use FU when none available
[...]
system.cpu1.dcache.WriteReq_misses::.cpu1.data      2342936                       # number of WriteReq misses
system.cpu1.dcache.WriteReq_misses::total      2342936                       # number of WriteReq misses
system.cpu1.dcache.WriteReq_miss_latency::.cpu1.data 161511193718                       # number of WriteReq miss cycles
system.cpu1.dcache.WriteReq_miss_latency::total 161511193718                       # number of WriteReq miss cycles
system.cpu1.dcache.WriteReq_accesses::.cpu1.data      5893130                       # number of WriteReq accesses(hits+misses)
system.cpu1.dcache.WriteReq_accesses::total      5893130                       # number of WriteReq accesses(hits+misses)
system.cpu1.dcache.WriteReq_miss_rate::.cpu1.data     0.397571                       # miss rate for WriteReq accesses
system.cpu1.dcache.WriteReq_miss_rate::total     0.397571                       # miss rate for WriteReq accesses
system.cpu1.dcache.WriteReq_avg_miss_latency::.cpu1.data 68935.384372                       # average WriteReq miss latency
system.cpu1.dcache.WriteReq_avg_miss_latency::total 68935.384372                       # average WriteReq miss latency
system.cpu1.dcache.WriteReq_mshr_hits::.cpu1.data      1894371                       # number of WriteReq MSHR hits
system.cpu1.dcache.WriteReq_mshr_hits::total      1894371                       # number of WriteReq MSHR hits
system.cpu1.dcache.WriteReq_mshr_misses::.cpu1.data       448565                       # number of WriteReq MSHR misses
system.cpu1.dcache.WriteReq_mshr_misses::total       448565                       # number of WriteReq MSHR misses
system.cpu1.dcache.WriteReq_mshr_miss_latency::.cpu1.data  30591609352                       # number of WriteReq MSHR miss cycles
system.cpu1.dcache.WriteReq_mshr_miss_latency::total  30591609352                       # number of WriteReq MSHR miss cycles
system.cpu1.dcache.WriteReq_mshr_miss_rate::.cpu1.data     0.076117                       # mshr miss rate for WriteReq accesses
system.cpu1.dcache.WriteReq_mshr_miss_rate::total     0.076117                       # mshr miss rate for WriteReq accesses
system.cpu1.dcache.WriteReq_avg_mshr_miss_latency::.cpu1.data 68198.832615                       # average WriteReq mshr miss latency
system.cpu1.dcache.WriteReq_avg_mshr_miss_latency::total 68198.832615                       # average WriteReq mshr miss latency
system.cpu1.dcache.LoadLockedReq_hits::.cpu1.data        76890                       # number of LoadLockedReq hits
system.cpu1.dcache.LoadLockedReq_hits::total        76890                       # number of LoadLockedReq hits
system.cpu1.dcache.LoadLockedReq_misses::.cpu1.data        28720                       # number of LoadLockedReq misses
system.cpu1.dcache.LoadLockedReq_misses::total        28720                       # number of LoadLockedReq misses
system.cpu1.dcache.LoadLockedReq_miss_latency::.cpu1.data    780921000                       # number of LoadLockedReq miss cycles
system.cpu1.dcache.LoadLockedReq_miss_latency::total    780921000                       # number of LoadLockedReq miss cycles
system.cpu1.dcache.LoadLockedReq_accesses::.cpu1.data       105610                       # number of LoadLockedReq accesses(hits+misses)
system.cpu1.dcache.LoadLockedReq_accesses::total       105610                       # number of LoadLockedReq accesses(hits+misses)
system.cpu1.dcache.LoadLockedReq_miss_rate::.cpu1.data     0.271944                       # miss rate for LoadLockedReq accesses
system.cpu1.dcache.LoadLockedReq_miss_rate::total     0.271944                       # miss rate for LoadLockedReq accesses
system.cpu1.dcache.LoadLockedReq_avg_miss_latency::.cpu1.data 27190.842618                       # average LoadLockedReq miss latency
system.cpu1.dcache.LoadLockedReq_avg_miss_latency::total 27190.842618                       # average LoadLockedReq miss latency
system.cpu1.dcache.LoadLockedReq_mshr_hits::.cpu1.data        25234                       # number of LoadLockedReq MSHR hits
system.cpu1.dcache.LoadLockedReq_mshr_hits::total        25234                       # number of LoadLockedReq MSHR hits
system.cpu1.dcache.LoadLockedReq_mshr_misses::.cpu1.data         3486                       # number of LoadLockedReq MSHR misses
system.cpu1.dcache.LoadLockedReq_mshr_misses::total         3486                       # number of LoadLockedReq MSHR misses
system.cpu1.dcache.LoadLockedReq_mshr_miss_latency::.cpu1.data     32845500                       # number of LoadLockedReq MSHR miss cycles
system.cpu1.dcache.LoadLockedReq_mshr_miss_latency::total     32845500                       # number of LoadLockedReq MSHR miss cycles
system.cpu1.dcache.LoadLockedReq_mshr_miss_rate::.cpu1.data     0.033008                       # mshr miss rate for LoadLockedReq accesses
system.cpu1.dcache.LoadLockedReq_mshr_miss_rate::total     0.033008                       # mshr miss rate for LoadLockedReq accesses
system.cpu1.dcache.LoadLockedReq_avg_mshr_miss_latency::.cpu1.data  9422.117040                       # average LoadLockedReq mshr miss latency
system.cpu1.dcache.LoadLockedReq_avg_mshr_miss_latency::total  9422.117040                       # average LoadLockedReq mshr miss latency
system.cpu1.dcache.StoreCondReq_hits::.cpu1.data        55646                       # number of StoreCondReq hits
system.cpu1.dcache.StoreCondReq_hits::total        55646                       # number of StoreCondReq hits
system.cpu1.dcache.StoreCondReq_misses::.cpu1.data        28353                       # number of StoreCondReq misses
system.cpu1.dcache.StoreCondReq_misses::total        28353                       # number of StoreCondReq misses
system.cpu1.dcache.StoreCondReq_miss_latency::.cpu1.data    292898500                       # number of StoreCondReq miss cycles
system.cpu1.dcache.StoreCondReq_miss_latency::total    292898500                       # number of StoreCondReq miss cycles
system.cpu1.dcache.StoreCondReq_accesses::.cpu1.data        83999                       # number of StoreCondReq accesses(hits+misses)
system.cpu1.dcache.StoreCondReq_accesses::total        83999                       # number of StoreCondReq accesses(hits+misses)
system.cpu1.dcache.StoreCondReq_miss_rate::.cpu1.data     0.337540                       # miss rate for StoreCondReq accesses
system.cpu1.dcache.StoreCondReq_miss_rate::total     0.337540                       # miss rate for StoreCondReq accesses
system.cpu1.dcache.StoreCondReq_avg_miss_latency::.cpu1.data 10330.423588                       # average StoreCondReq miss latency
system.cpu1.dcache.StoreCondReq_avg_miss_latency::total 10330.423588                       # average StoreCondReq miss latency
system.cpu1.dcache.StoreCondReq_mshr_misses::.cpu1.data        28345                       # number of StoreCondReq MSHR misses
system.cpu1.dcache.StoreCondReq_mshr_misses::total        28345                       # number of StoreCondReq MSHR misses
system.cpu1.dcache.StoreCondReq_mshr_miss_latency::.cpu1.data    264779500                       # number of StoreCondReq MSHR miss cycles
system.cpu1.dcache.StoreCondReq_mshr_miss_latency::total    264779500                       # number of StoreCondReq MSHR miss cycles
system.cpu1.dcache.StoreCondReq_mshr_miss_rate::.cpu1.data     0.337444                       # mshr miss rate for StoreCondReq accesses
system.cpu1.dcache.StoreCondReq_mshr_miss_rate::total     0.337444                       # mshr miss rate for StoreCondReq accesses
system.cpu1.dcache.StoreCondReq_avg_mshr_miss_latency::.cpu1.data  9341.312401                       # average StoreCondReq mshr miss latency
system.cpu1.dcache.StoreCondReq_avg_mshr_miss_latency::total  9341.312401                       # average StoreCondReq mshr miss latency
system.cpu1.dcache.StoreCondFailReq_miss_latency::.cpu1.data      5404500                       # number of StoreCondFailReq miss cycles
system.cpu1.dcache.StoreCondFailReq_miss_latency::total      5404500                       # number of StoreCondFailReq miss cycles
system.cpu1.dcache.StoreCondFailReq_avg_miss_latency::.cpu1.data          inf                       # average StoreCondFailReq miss latency
system.cpu1.dcache.StoreCondFailReq_avg_miss_latency::total          inf                       # average StoreCondFailReq miss latency
system.cpu1.dcache.StoreCondFailReq_mshr_miss_latency::.cpu1.data      5178500                       # number of StoreCondFailReq MSHR miss cycles
system.cpu1.dcache.StoreCondFailReq_mshr_miss_latency::total      5178500                       # number of StoreCondFailReq MSHR miss cycles
system.cpu1.dcache.StoreCondFailReq_avg_mshr_miss_latency::.cpu1.data          inf                       # average StoreCondFailReq mshr miss latency
system.cpu1.dcache.StoreCondFailReq_avg_mshr_miss_latency::total          inf                       # average StoreCondFailReq mshr miss latency
system.cpu1.dcache.SwapReq_hits::.cpu1.data        48871                       # number of SwapReq hits
system.cpu1.dcache.SwapReq_hits::total          48871                       # number of SwapReq hits
system.cpu1.dcache.SwapReq_misses::.cpu1.data        27752                       # number of SwapReq misses
system.cpu1.dcache.SwapReq_misses::total        27752                       # number of SwapReq misses
system.cpu1.dcache.SwapReq_miss_latency::.cpu1.data    136134498                       # number of SwapReq miss cycles
system.cpu1.dcache.SwapReq_miss_latency::total    136134498                       # number of SwapReq miss cycles
system.cpu1.dcache.SwapReq_accesses::.cpu1.data        76623                       # number of SwapReq accesses(hits+misses)
system.cpu1.dcache.SwapReq_accesses::total        76623                       # number of SwapReq accesses(hits+misses)
system.cpu1.dcache.SwapReq_miss_rate::.cpu1.data     0.362189                       # miss rate for SwapReq accesses
system.cpu1.dcache.SwapReq_miss_rate::total     0.362189                       # miss rate for SwapReq accesses
system.cpu1.dcache.SwapReq_avg_miss_latency::.cpu1.data  4905.394134                       # average SwapReq miss latency
system.cpu1.dcache.SwapReq_avg_miss_latency::total  4905.394134                       # average SwapReq miss latency
system.cpu1.dcache.SwapReq_mshr_hits::.cpu1.data            9                       # number of SwapReq MSHR hits
system.cpu1.dcache.SwapReq_mshr_hits::total            9                       # number of SwapReq MSHR hits
system.cpu1.dcache.SwapReq_mshr_misses::.cpu1.data        27743                       # number of SwapReq MSHR misses
system.cpu1.dcache.SwapReq_mshr_misses::total        27743                       # number of SwapReq MSHR misses
system.cpu1.dcache.SwapReq_mshr_miss_latency::.cpu1.data    108222000                       # number of SwapReq MSHR miss cycles
system.cpu1.dcache.SwapReq_mshr_miss_latency::total    108222000                       # number of SwapReq MSHR miss cycles
system.cpu1.dcache.SwapReq_mshr_miss_rate::.cpu1.data     0.362071                       # mshr miss rate for SwapReq accesses
system.cpu1.dcache.SwapReq_mshr_miss_rate::total     0.362071                       # mshr miss rate for SwapReq accesses
system.cpu1.dcache.SwapReq_avg_mshr_miss_latency::.cpu1.data  3900.875897                       # average SwapReq mshr miss latency
system.cpu1.dcache.SwapReq_avg_mshr_miss_latency::total  3900.875897                       # average SwapReq mshr miss latency
system.cpu1.dcache.tags.pwrStateResidencyTicks::UNDEFINED 223635680500                       # Cumulative time (in ticks) in various power states
system.cpu1.dcache.tags.tagsinuse           31.526755                       # Cycle average of tags in use
system.cpu1.dcache.tags.total_refs           10121059                       # Total number of references to valid blocks.
system.cpu1.dcache.tags.sampled_refs          1092168                       # Sample count of references to valid blocks.
system.cpu1.dcache.tags.avg_refs             9.266943                       # Average number of references to valid blocks.
system.cpu1.dcache.tags.warmup_cycle                0                       # Cycle when the warmup percentage was hit.
system.cpu1.dcache.tags.occ_blocks::.cpu1.data    31.526755                       # Average occupied blocks per requestor
system.cpu1.dcache.tags.occ_percent::.cpu1.data     0.985211                       # Average percentage of cache occupancy
system.cpu1.dcache.tags.occ_percent::total     0.985211                       # Average percentage of cache occupancy
system.cpu1.dcache.tags.occ_task_id_blocks::1024           31                       # Occupied blocks per task id
system.cpu1.dcache.tags.age_task_id_blocks_1024::1           31                       # Occupied blocks per task id
system.cpu1.dcache.tags.occ_task_id_percent::1024     0.968750                       # Percentage of cache occupancy per task id
system.cpu1.dcache.tags.tag_accesses         26346839                       # Number of tag accesses
system.cpu1.dcache.tags.data_accesses        26346839                       # Number of data accesses
system.cpu_clk_domain.clock                       500                       # Clock period in ticks
system.tol2bus.pwrStateResidencyTicks::UNDEFINED 223635680500                       # Cumulative time (in ticks) in various power states
system.tol2bus.trans_dist::ReadResp           5120643                       # Transaction distribution
system.tol2bus.trans_dist::WritebackDirty      2341033                       # Transaction distribution
system.tol2bus.trans_dist::WritebackClean      4513173                       # Transaction distribution
system.tol2bus.trans_dist::CleanEvict         7475747                       # Transaction distribution
system.tol2bus.trans_dist::HardPFReq           888474                       # Transaction distribution
system.tol2bus.trans_dist::HardPFResp               1                       # Transaction distribution
system.tol2bus.trans_dist::UpgradeReq           98542                       # Transaction distribution
system.tol2bus.trans_dist::SCUpgradeReq         48883                       # Transaction distribution
system.tol2bus.trans_dist::UpgradeResp         147425                       # Transaction distribution
system.tol2bus.trans_dist::SCUpgradeFailReq          244                       # Transaction distribution
system.tol2bus.trans_dist::UpgradeFailResp          244                       # Transaction distribution
system.tol2bus.trans_dist::ReadExReq           842866                       # Transaction distribution
system.tol2bus.trans_dist::ReadExResp          842867                       # Transaction distribution
system.tol2bus.trans_dist::ReadCleanReq       3394429                       # Transaction distribution
system.tol2bus.trans_dist::ReadSharedReq      1726213                       # Transaction distribution
system.tol2bus.trans_dist::InvalidateReq         2977                       # Transaction distribution
system.tol2bus.trans_dist::InvalidateResp         2977                       # Transaction distribution
system.tol2bus.pkt_count_system.cpu0.icache.mem_side::system.l2.cpu_side      3694253                       # Packet count per connected master and slave (bytes)
system.tol2bus.pkt_count_system.cpu0.dcache.mem_side::system.l2.cpu_side      4349413                       # Packet count per connected master and slave (bytes)
system.tol2bus.pkt_count_system.cpu1.icache.mem_side::system.l2.cpu_side      6488917                       # Packet count per connected master and slave (bytes)
system.tol2bus.pkt_count_system.cpu1.dcache.mem_side::system.l2.cpu_side      3155039                       # Packet count per connected master and slave (bytes)
system.tol2bus.pkt_count::total              17687622                       # Packet count per connected master and slave (bytes)
system.tol2bus.pkt_size_system.cpu0.icache.mem_side::system.l2.cpu_side    157619200                       # Cumulative packet size per connected master and slave (bytes)
system.tol2bus.pkt_size_system.cpu0.dcache.mem_side::system.l2.cpu_side    177120000                       # Cumulative packet size per connected master and slave (bytes)
system.tol2bus.pkt_size_system.cpu1.icache.mem_side::system.l2.cpu_side    276860224                       # Cumulative packet size per connected master and slave (bytes)
system.tol2bus.pkt_size_system.cpu1.dcache.mem_side::system.l2.cpu_side    126785408                       # Cumulative packet size per connected master and slave (bytes)
system.tol2bus.pkt_size::total              738384832                       # Cumulative packet size per connected master and slave (bytes)
system.tol2bus.snoops                         9759117                       # Total snoops (count)
system.tol2bus.snoopTraffic                  81964736                       # Total snoop traffic (bytes)
system.tol2bus.snoop_fanout::samples         15548552                       # Request fanout histogram
system.tol2bus.snoop_fanout::mean            0.361971                       # Request fanout histogram
system.tol2bus.snoop_fanout::stdev           0.532286                       # Request fanout histogram
system.tol2bus.snoop_fanout::underflows             0      0.00%      0.00% # Request fanout histogram
system.tol2bus.snoop_fanout::0               10327643     66.42%     66.42% # Request fanout histogram
system.tol2bus.snoop_fanout::1                4813688     30.96%     97.38% # Request fanout histogram
system.tol2bus.snoop_fanout::2                 407221      2.62%    100.00% # Request fanout histogram
system.tol2bus.snoop_fanout::3                      0      0.00%    100.00% # Request fanout histogram
system.tol2bus.snoop_fanout::4                      0      0.00%    100.00% # Request fanout histogram
system.tol2bus.snoop_fanout::5                      0      0.00%    100.00% # Request fanout histogram
system.tol2bus.snoop_fanout::6                      0      0.00%    100.00% # Request fanout histogram
system.tol2bus.snoop_fanout::7                      0      0.00%    100.00% # Request fanout histogram
system.tol2bus.snoop_fanout::8                      0      0.00%    100.00% # Request fanout histogram
system.tol2bus.snoop_fanout::overflows              0      0.00%    100.00% # Request fanout histogram
system.tol2bus.snoop_fanout::min_value              0                       # Request fanout histogram
system.tol2bus.snoop_fanout::max_value              2                       # Request fanout histogram
system.tol2bus.snoop_fanout::total           15548552                       # Request fanout histogram
system.tol2bus.reqLayer0.occupancy        11733413491                       # Layer occupancy (ticks)
system.tol2bus.reqLayer0.utilization              5.2                       # Layer utilization (%)
system.tol2bus.respLayer1.occupancy        2258606495                       # Layer occupancy (ticks)
system.tol2bus.respLayer1.utilization             1.0                       # Layer utilization (%)
system.tol2bus.respLayer0.occupancy        1849594660                       # Layer occupancy (ticks)
system.tol2bus.respLayer0.utilization             0.8                       # Layer utilization (%)
system.tol2bus.respLayer3.occupancy        1673825742                       # Layer occupancy (ticks)
system.tol2bus.respLayer3.utilization             0.7                       # Layer utilization (%)
system.tol2bus.respLayer2.occupancy        3245419584                       # Layer occupancy (ticks)
system.tol2bus.respLayer2.utilization             1.5                       # Layer utilization (%)
system.tol2bus.snoopLayer0.occupancy             1500                       # Layer occupancy (ticks)
system.tol2bus.snoopLayer0.utilization            0.0                       # Layer utilization (%)

---------- End Simulation Statistics   ----------
