
---------- Begin Simulation Statistics ----------
final_tick                               661121787500                       # Number of ticks from beginning of simulation (restored from checkpoints and never reset)
host_inst_rate                                  78462                       # Simulator instruction rate (inst/s)
host_mem_usage                                 703012                       # Number of bytes of host memory used
host_op_rate                                    78697                       # Simulator op (including micro ops) rate (op/s)
host_seconds                                  8678.88                       # Real time elapsed on the host
host_tick_rate                               76175971                       # Simulator tick rate (ticks/s)
sim_freq                                 1000000000000                       # Frequency of simulated ticks
sim_insts                                   680965866                       # Number of instructions simulated
sim_ops                                     683003475                       # Number of ops (including micro ops) simulated
sim_seconds                                  0.661122                       # Number of seconds simulated
sim_ticks                                661121787500                       # Number of ticks simulated
system.cpu0.branchPred.BTBCorrect                   0                       # Number of correct BTB predictions (this stat may not work properly.
system.cpu0.branchPred.BTBHitPct            84.210338                       # BTB Hit Percentage
system.cpu0.branchPred.BTBHits               84685779                       # Number of BTB hits
system.cpu0.branchPred.BTBLookups           100564588                       # Number of BTB lookups
system.cpu0.branchPred.RASInCorrect                 0                       # Number of incorrect RAS predictions.
system.cpu0.branchPred.condIncorrect          7678677                       # Number of conditional branches incorrect
system.cpu0.branchPred.condPredicted        132466820                       # Number of conditional branches predicted
system.cpu0.branchPred.indirectHits          14459564                       # Number of indirect target hits.
system.cpu0.branchPred.indirectLookups       14583226                       # Number of indirect predictor lookups.
system.cpu0.branchPred.indirectMisses          123662                       # Number of indirect misses.
system.cpu0.branchPred.lookups              170952475                       # Number of BP lookups
system.cpu0.branchPred.usedRAS                      0                       # Number of times the RAS was used to get a target.
system.cpu0.branchPredindirectMispredicted      1083010                       # Number of mispredicted indirect branches.
system.cpu0.commit.amos                       1018216                       # Number of atomic instructions committed
system.cpu0.commit.branchMispredicts          5033251                       # The number of times a branch was mispredicted
system.cpu0.commit.branches                 151193702                       # Number of branches committed
system.cpu0.commit.bw_lim_events             19956160                       # number cycles where commit BW limit reached
system.cpu0.commit.commitNonSpecStalls        3058515                       # The number of times commit has been forced to stall to communicate backwards
system.cpu0.commit.commitSquashedInsts       86884902                       # The number of squashed insts skipped by commit
system.cpu0.commit.committedInsts           623576353                       # Number of instructions committed
system.cpu0.commit.committedOps             624595851                       # Number of ops (including micro ops) committed
system.cpu0.commit.committed_per_cycle::samples   1110251366                       # Number of insts commited each cycle
system.cpu0.commit.committed_per_cycle::mean     0.562572                       # Number of insts commited each cycle
system.cpu0.commit.committed_per_cycle::stdev     1.367066                       # Number of insts commited each cycle
system.cpu0.commit.committed_per_cycle::underflows            0      0.00%      0.00% # Number of insts commited each cycle
system.cpu0.commit.committed_per_cycle::0    819264775     73.79%     73.79% # Number of insts commited each cycle
system.cpu0.commit.committed_per_cycle::1    170040157     15.32%     89.11% # Number of insts commited each cycle
system.cpu0.commit.committed_per_cycle::2     44074617      3.97%     93.08% # Number of insts commited each cycle
system.cpu0.commit.committed_per_cycle::3     33618138      3.03%     96.10% # Number of insts commited each cycle
system.cpu0.commit.committed_per_cycle::4     15479753      1.39%     97.50% # Number of insts commited each cycle
system.cpu0.commit.committed_per_cycle::5      4540625      0.41%     97.91% # Number of insts commited each cycle
system.cpu0.commit.committed_per_cycle::6      1659358      0.15%     98.06% # Number of insts commited each cycle
system.cpu0.commit.committed_per_cycle::7      1617783      0.15%     98.20% # Number of insts commited each cycle
system.cpu0.commit.committed_per_cycle::8     19956160      1.80%    100.00% # Number of insts commited each cycle
system.cpu0.commit.committed_per_cycle::overflows            0      0.00%    100.00% # Number of insts commited each cycle
system.cpu0.commit.committed_per_cycle::min_value            0                       # Number of insts commited each cycle
system.cpu0.commit.committed_per_cycle::max_value            8                       # Number of insts commited each cycle
system.cpu0.commit.committed_per_cycle::total   1110251366                       # Number of insts commited each cycle
system.cpu0.commit.fp_insts                        50                       # Number of committed floating point instructions.
system.cpu0.commit.function_calls            13129876                       # Number of function calls committed.
system.cpu0.commit.int_insts                604892077                       # Number of committed integer instructions.
system.cpu0.commit.loads                    190129963                       # Number of loads committed
system.cpu0.commit.membars                    2037598                       # Number of memory barriers committed
system.cpu0.commit.op_class_0::No_OpClass      2037604      0.33%      0.33% # Class of committed instruction
system.cpu0.commit.op_class_0::IntAlu       347091837     55.57%     55.90% # Class of committed instruction
system.cpu0.commit.op_class_0::IntMult        4400495      0.70%     56.60% # Class of committed instruction
system.cpu0.commit.op_class_0::IntDiv         1542070      0.25%     56.85% # Class of committed instruction
system.cpu0.commit.op_class_0::FloatAdd             0      0.00%     56.85% # Class of committed instruction
system.cpu0.commit.op_class_0::FloatCmp             4      0.00%     56.85% # Class of committed instruction
system.cpu0.commit.op_class_0::FloatCvt            12      0.00%     56.85% # Class of committed instruction
system.cpu0.commit.op_class_0::FloatMult            0      0.00%     56.85% # Class of committed instruction
system.cpu0.commit.op_class_0::FloatMultAcc            0      0.00%     56.85% # Class of committed instruction
system.cpu0.commit.op_class_0::FloatDiv             2      0.00%     56.85% # Class of committed instruction
system.cpu0.commit.op_class_0::FloatMisc            4      0.00%     56.85% # Class of committed instruction
system.cpu0.commit.op_class_0::FloatSqrt            0      0.00%     56.85% # Class of committed instruction
system.cpu0.commit.op_class_0::SimdAdd              0      0.00%     56.85% # Class of committed instruction
system.cpu0.commit.op_class_0::SimdAddAcc            0      0.00%     56.85% # Class of committed instruction
system.cpu0.commit.op_class_0::SimdAlu              0      0.00%     56.85% # Class of committed instruction
system.cpu0.commit.op_class_0::SimdCmp              0      0.00%     56.85% # Class of committed instruction
system.cpu0.commit.op_class_0::SimdCvt              0      0.00%     56.85% # Class of committed instruction
system.cpu0.commit.op_class_0::SimdMisc             0      0.00%     56.85% # Class of committed instruction
system.cpu0.commit.op_class_0::SimdMult             0      0.00%     56.85% # Class of committed instruction
system.cpu0.commit.op_class_0::SimdMultAcc            0      0.00%     56.85% # Class of committed instruction
system.cpu0.commit.op_class_0::SimdShift            0      0.00%     56.85% # Class of committed instruction
system.cpu0.commit.op_class_0::SimdShiftAcc            0      0.00%     56.85% # Class of committed instruction
system.cpu0.commit.op_class_0::SimdDiv              0      0.00%     56.85% # Class of committed instruction
system.cpu0.commit.op_class_0::SimdSqrt             0      0.00%     56.85% # Class of committed instruction
system.cpu0.commit.op_class_0::SimdFloatAdd            0      0.00%     56.85% # Class of committed instruction
system.cpu0.commit.op_class_0::SimdFloatAlu            0      0.00%     56.85% # Class of committed instruction
system.cpu0.commit.op_class_0::SimdFloatCmp            0      0.00%     56.85% # Class of committed instruction
system.cpu0.commit.op_class_0::SimdFloatCvt            0      0.00%     56.85% # Class of committed instruction
system.cpu0.commit.op_class_0::SimdFloatDiv            0      0.00%     56.85% # Class of committed instruction
system.cpu0.commit.op_class_0::SimdFloatMisc            0      0.00%     56.85% # Class of committed instruction
system.cpu0.commit.op_class_0::SimdFloatMult            0      0.00%     56.85% # Class of committed instruction
system.cpu0.commit.op_class_0::SimdFloatMultAcc            0      0.00%     56.85% # Class of committed instruction
system.cpu0.commit.op_class_0::SimdFloatSqrt            0      0.00%     56.85% # Class of committed instruction
system.cpu0.commit.op_class_0::SimdReduceAdd            0      0.00%     56.85% # Class of committed instruction
system.cpu0.commit.op_class_0::SimdReduceAlu            0      0.00%     56.85% # Class of committed instruction
system.cpu0.commit.op_class_0::SimdReduceCmp            0      0.00%     56.85% # Class of committed instruction
system.cpu0.commit.op_class_0::SimdFloatReduceAdd            0      0.00%     56.85% # Class of committed instruction
system.cpu0.commit.op_class_0::SimdFloatReduceCmp            0      0.00%     56.85% # Class of committed instruction
system.cpu0.commit.op_class_0::SimdAes              0      0.00%     56.85% # Class of committed instruction
system.cpu0.commit.op_class_0::SimdAesMix            0      0.00%     56.85% # Class of committed instruction
system.cpu0.commit.op_class_0::SimdSha1Hash            0      0.00%     56.85% # Class of committed instruction
system.cpu0.commit.op_class_0::SimdSha1Hash2            0      0.00%     56.85% # Class of committed instruction
system.cpu0.commit.op_class_0::SimdSha256Hash            0      0.00%     56.85% # Class of committed instruction
system.cpu0.commit.op_class_0::SimdSha256Hash2            0      0.00%     56.85% # Class of committed instruction
system.cpu0.commit.op_class_0::SimdShaSigma2            0      0.00%     56.85% # Class of committed instruction
system.cpu0.commit.op_class_0::SimdShaSigma3            0      0.00%     56.85% # Class of committed instruction
system.cpu0.commit.op_class_0::SimdPredAlu            0      0.00%     56.85% # Class of committed instruction
system.cpu0.commit.op_class_0::MemRead      191148171     30.60%     87.45% # Class of committed instruction
system.cpu0.commit.op_class_0::MemWrite      78375624     12.55%    100.00% # Class of committed instruction
system.cpu0.commit.op_class_0::FloatMemRead            8      0.00%    100.00% # Class of committed instruction
system.cpu0.commit.op_class_0::FloatMemWrite           20      0.00%    100.00% # Class of committed instruction
system.cpu0.commit.op_class_0::IprAccess            0      0.00%    100.00% # Class of committed instruction
system.cpu0.commit.op_class_0::InstPrefetch            0      0.00%    100.00% # Class of committed instruction
system.cpu0.commit.op_class_0::total        624595851                       # Class of committed instruction
system.cpu0.commit.refs                     269523823                       # Number of memory references committed
system.cpu0.commit.swp_count                        0                       # Number of s/w prefetches committed
system.cpu0.commit.vec_insts                        0                       # Number of committed Vector instructions.
system.cpu0.committedInsts                  623576353                       # Number of Instructions Simulated
system.cpu0.committedOps                    624595851                       # Number of Ops (including micro ops) Simulated
system.cpu0.cpi                              2.105206                       # CPI: Cycles Per Instruction
system.cpu0.cpi_total                        2.105206                       # CPI: Total CPI of All Threads
system.cpu0.decode.BlockedCycles            200703208                       # Number of cycles decode is blocked
system.cpu0.decode.BranchMispred              2652462                       # Number of times decode detected a branch misprediction
system.cpu0.decode.BranchResolved            82985612                       # Number of times decode resolved a branch
system.cpu0.decode.DecodedInsts             723784895                       # Number of instructions handled by decode
system.cpu0.decode.IdleCycles               406801427                       # Number of cycles decode is idle
system.cpu0.decode.RunCycles                507847139                       # Number of cycles decode is running
system.cpu0.decode.SquashCycles               5042204                       # Number of cycles decode is squashing
system.cpu0.decode.SquashedInsts              9485923                       # Number of squashed instructions handled by decode
system.cpu0.decode.UnblockCycles              4152092                       # Number of cycles decode is unblocking
system.cpu0.dtb.accesses                            0                       # DTB accesses
system.cpu0.dtb.hits                                0                       # DTB hits
system.cpu0.dtb.misses                              0                       # DTB misses
system.cpu0.dtb.read_accesses                       0                       # DTB read accesses
system.cpu0.dtb.read_hits                           0                       # DTB read hits
system.cpu0.dtb.read_misses                         0                       # DTB read misses
system.cpu0.dtb.write_accesses                      0                       # DTB write accesses
system.cpu0.dtb.write_hits                          0                       # DTB write hits
system.cpu0.dtb.write_misses                        0                       # DTB write misses
system.cpu0.fetch.Branches                  170952475                       # Number of branches that fetch encountered
system.cpu0.fetch.CacheLines                127768190                       # Number of cache lines fetched
system.cpu0.fetch.Cycles                    709951717                       # Number of cycles fetch has run and was not squashing or blocked
system.cpu0.fetch.IcacheSquashes              2422282                       # Number of outstanding Icache misses that were squashed
system.cpu0.fetch.IcacheWaitRetryStallCycles           45                       # Number of stall cycles due to full MSHR
system.cpu0.fetch.Insts                     742284739                       # Number of instructions fetch has processed
system.cpu0.fetch.MiscStallCycles                 208                       # Number of cycles fetch has spent waiting on interrupts, or bad addresses, or out of MSHRs
system.cpu0.fetch.PendingTrapStallCycles          832                       # Number of stall cycles due to pending traps
system.cpu0.fetch.SquashCycles               15375494                       # Number of cycles fetch has spent squashing
system.cpu0.fetch.branchRate                 0.130224                       # Number of branch fetches per cycle
system.cpu0.fetch.icacheStallCycles         406905521                       # Number of cycles fetch is stalled on an Icache miss
system.cpu0.fetch.predictedBranches          99145343                       # Number of branches that fetch has predicted taken
system.cpu0.fetch.rate                       0.565440                       # Number of inst fetches per cycle
system.cpu0.fetch.rateDist::samples        1124546070                       # Number of instructions fetched each cycle (Total)
system.cpu0.fetch.rateDist::mean             0.660982                       # Number of instructions fetched each cycle (Total)
system.cpu0.fetch.rateDist::stdev            0.884612                       # Number of instructions fetched each cycle (Total)
system.cpu0.fetch.rateDist::underflows              0      0.00%      0.00% # Number of instructions fetched each cycle (Total)
system.cpu0.fetch.rateDist::0               588960727     52.37%     52.37% # Number of instructions fetched each cycle (Total)
system.cpu0.fetch.rateDist::1               400750408     35.64%     88.01% # Number of instructions fetched each cycle (Total)
system.cpu0.fetch.rateDist::2                83181693      7.40%     95.41% # Number of instructions fetched each cycle (Total)
system.cpu0.fetch.rateDist::3                39042391      3.47%     98.88% # Number of instructions fetched each cycle (Total)
system.cpu0.fetch.rateDist::4                 6509503      0.58%     99.46% # Number of instructions fetched each cycle (Total)
system.cpu0.fetch.rateDist::5                 4607010      0.41%     99.87% # Number of instructions fetched each cycle (Total)
system.cpu0.fetch.rateDist::6                  472521      0.04%     99.91% # Number of instructions fetched each cycle (Total)
system.cpu0.fetch.rateDist::7                 1018820      0.09%    100.00% # Number of instructions fetched each cycle (Total)
system.cpu0.fetch.rateDist::8                    2997      0.00%    100.00% # Number of instructions fetched each cycle (Total)
system.cpu0.fetch.rateDist::overflows               0      0.00%    100.00% # Number of instructions fetched each cycle (Total)
system.cpu0.fetch.rateDist::min_value               0                       # Number of instructions fetched each cycle (Total)
system.cpu0.fetch.rateDist::max_value               8                       # Number of instructions fetched each cycle (Total)
system.cpu0.fetch.rateDist::total          1124546070                       # Number of instructions fetched each cycle (Total)
system.cpu0.fp_regfile_reads                       44                       # number of floating regfile reads
system.cpu0.fp_regfile_writes                      24                       # number of floating regfile writes
system.cpu0.idleCycles                      188210370                       # Total number of cycles that the CPU has spent unscheduled due to idling
system.cpu0.iew.branchMispredicts             5096844                       # Number of branch mispredicts detected at execute
system.cpu0.iew.exec_branches               161579253                       # Number of branches executed
system.cpu0.iew.exec_nop                            0                       # number of nop insts executed
system.cpu0.iew.exec_rate                    0.534412                       # Inst execution rate
system.cpu0.iew.exec_refs                   317850013                       # number of memory reference insts executed
system.cpu0.iew.exec_stores                  97260917                       # Number of stores executed
system.cpu0.iew.exec_swp                            0                       # number of swp insts executed
system.cpu0.iew.iewBlockCycles              158883192                       # Number of cycles IEW is blocking
system.cpu0.iew.iewDispLoadInsts            220408703                       # Number of dispatched load instructions
system.cpu0.iew.iewDispNonSpecInsts           1021172                       # Number of dispatched non-speculative instructions
system.cpu0.iew.iewDispSquashedInsts          2527467                       # Number of squashed instructions skipped by dispatch
system.cpu0.iew.iewDispStoreInsts           100478097                       # Number of dispatched store instructions
system.cpu0.iew.iewDispatchedInsts          711465495                       # Number of instructions dispatched to IQ
system.cpu0.iew.iewExecLoadInsts            220589096                       # Number of load instructions executed
system.cpu0.iew.iewExecSquashedInsts          4324363                       # Number of squashed instructions skipped in execute
system.cpu0.iew.iewExecutedInsts            701552883                       # Number of executed instructions
system.cpu0.iew.iewIQFullEvents                757409                       # Number of times the IQ has become full, causing a stall
system.cpu0.iew.iewIdleCycles                       0                       # Number of cycles IEW is idle
system.cpu0.iew.iewLSQFullEvents              6504613                       # Number of times the LSQ has become full, causing a stall
system.cpu0.iew.iewSquashCycles               5042204                       # Number of cycles IEW is squashing
system.cpu0.iew.iewUnblockCycles              8625431                       # Number of cycles IEW is unblocking
system.cpu0.iew.lsq.thread0.blockedLoads            0                       # Number of blocked loads due to partial load-store forwarding
system.cpu0.iew.lsq.thread0.cacheBlocked       179980                       # Number of times an access to memory failed due to the cache being blocked
system.cpu0.iew.lsq.thread0.forwLoads        14913854                       # Number of loads that had data forwarded from stores
system.cpu0.iew.lsq.thread0.ignoredResponses         6849                       # Number of memory responses ignored because the instruction is squashed
system.cpu0.iew.lsq.thread0.invAddrLoads            0                       # Number of loads ignored due to an invalid address
system.cpu0.iew.lsq.thread0.invAddrSwpfs            0                       # Number of software prefetches ignored due to an invalid address
system.cpu0.iew.lsq.thread0.memOrderViolation        10054                       # Number of memory ordering violations
system.cpu0.iew.lsq.thread0.rescheduledLoads      4269207                       # Number of loads that were rescheduled
system.cpu0.iew.lsq.thread0.squashedLoads     30278740                       # Number of loads squashed
system.cpu0.iew.lsq.thread0.squashedStores     21084226                       # Number of stores squashed
system.cpu0.iew.memOrderViolationEvents         10054                       # Number of memory order violations
system.cpu0.iew.predictedNotTakenIncorrect       679830                       # Number of branches that were predicted not taken incorrectly
system.cpu0.iew.predictedTakenIncorrect       4417014                       # Number of branches that were predicted taken incorrectly
system.cpu0.iew.wb_consumers                302251861                       # num instructions consuming a value
system.cpu0.iew.wb_count                    693657083                       # cumulative count of insts written-back
system.cpu0.iew.wb_fanout                    0.844366                       # average fanout of values written-back
system.cpu0.iew.wb_producers                255211166                       # num instructions producing a value
system.cpu0.iew.wb_rate                      0.528397                       # insts written-back per cycle
system.cpu0.iew.wb_sent                     693710450                       # cumulative count of insts sent to commit
system.cpu0.int_regfile_reads               865555269                       # number of integer regfile reads
system.cpu0.int_regfile_writes              441434750                       # number of integer regfile writes
system.cpu0.ipc                              0.475013                       # IPC: Instructions Per Cycle
system.cpu0.ipc_total                        0.475013                       # IPC: Total IPC of All Threads
system.cpu0.iq.FU_type_0::No_OpClass          2038580      0.29%      0.29% # Type of FU issued
system.cpu0.iq.FU_type_0::IntAlu            378432378     53.61%     53.90% # Type of FU issued
system.cpu0.iq.FU_type_0::IntMult             4405646      0.62%     54.52% # Type of FU issued
system.cpu0.iq.FU_type_0::IntDiv              1542665      0.22%     54.74% # Type of FU issued
system.cpu0.iq.FU_type_0::FloatAdd                  0      0.00%     54.74% # Type of FU issued
system.cpu0.iq.FU_type_0::FloatCmp                  4      0.00%     54.74% # Type of FU issued
system.cpu0.iq.FU_type_0::FloatCvt                 12      0.00%     54.74% # Type of FU issued
system.cpu0.iq.FU_type_0::FloatMult                 0      0.00%     54.74% # Type of FU issued
system.cpu0.iq.FU_type_0::FloatMultAcc              0      0.00%     54.74% # Type of FU issued
system.cpu0.iq.FU_type_0::FloatDiv                  2      0.00%     54.74% # Type of FU issued
system.cpu0.iq.FU_type_0::FloatMisc                 4      0.00%     54.74% # Type of FU issued
system.cpu0.iq.FU_type_0::FloatSqrt                 0      0.00%     54.74% # Type of FU issued
system.cpu0.iq.FU_type_0::SimdAdd                   0      0.00%     54.74% # Type of FU issued
system.cpu0.iq.FU_type_0::SimdAddAcc                0      0.00%     54.74% # Type of FU issued
system.cpu0.iq.FU_type_0::SimdAlu                   0      0.00%     54.74% # Type of FU issued
system.cpu0.iq.FU_type_0::SimdCmp                   0      0.00%     54.74% # Type of FU issued
system.cpu0.iq.FU_type_0::SimdCvt                   0      0.00%     54.74% # Type of FU issued
system.cpu0.iq.FU_type_0::SimdMisc                  0      0.00%     54.74% # Type of FU issued
system.cpu0.iq.FU_type_0::SimdMult                  0      0.00%     54.74% # Type of FU issued
system.cpu0.iq.FU_type_0::SimdMultAcc               0      0.00%     54.74% # Type of FU issued
system.cpu0.iq.FU_type_0::SimdShift                 0      0.00%     54.74% # Type of FU issued
system.cpu0.iq.FU_type_0::SimdShiftAcc              0      0.00%     54.74% # Type of FU issued
system.cpu0.iq.FU_type_0::SimdDiv                   0      0.00%     54.74% # Type of FU issued
system.cpu0.iq.FU_type_0::SimdSqrt                  0      0.00%     54.74% # Type of FU issued
system.cpu0.iq.FU_type_0::SimdFloatAdd              0      0.00%     54.74% # Type of FU issued
system.cpu0.iq.FU_type_0::SimdFloatAlu              0      0.00%     54.74% # Type of FU issued
system.cpu0.iq.FU_type_0::SimdFloatCmp              0      0.00%     54.74% # Type of FU issued
system.cpu0.iq.FU_type_0::SimdFloatCvt              0      0.00%     54.74% # Type of FU issued
system.cpu0.iq.FU_type_0::SimdFloatDiv              0      0.00%     54.74% # Type of FU issued
system.cpu0.iq.FU_type_0::SimdFloatMisc             0      0.00%     54.74% # Type of FU issued
system.cpu0.iq.FU_type_0::SimdFloatMult             0      0.00%     54.74% # Type of FU issued
system.cpu0.iq.FU_type_0::SimdFloatMultAcc            0      0.00%     54.74% # Type of FU issued
system.cpu0.iq.FU_type_0::SimdFloatSqrt             0      0.00%     54.74% # Type of FU issued
system.cpu0.iq.FU_type_0::SimdReduceAdd             0      0.00%     54.74% # Type of FU issued
system.cpu0.iq.FU_type_0::SimdReduceAlu             0      0.00%     54.74% # Type of FU issued
system.cpu0.iq.FU_type_0::SimdReduceCmp             0      0.00%     54.74% # Type of FU issued
system.cpu0.iq.FU_type_0::SimdFloatReduceAdd            0      0.00%     54.74% # Type of FU issued
system.cpu0.iq.FU_type_0::SimdFloatReduceCmp            0      0.00%     54.74% # Type of FU issued
system.cpu0.iq.FU_type_0::SimdAes                   0      0.00%     54.74% # Type of FU issued
system.cpu0.iq.FU_type_0::SimdAesMix                0      0.00%     54.74% # Type of FU issued
system.cpu0.iq.FU_type_0::SimdSha1Hash              0      0.00%     54.74% # Type of FU issued
system.cpu0.iq.FU_type_0::SimdSha1Hash2             0      0.00%     54.74% # Type of FU issued
system.cpu0.iq.FU_type_0::SimdSha256Hash            0      0.00%     54.74% # Type of FU issued
system.cpu0.iq.FU_type_0::SimdSha256Hash2            0      0.00%     54.74% # Type of FU issued
system.cpu0.iq.FU_type_0::SimdShaSigma2             0      0.00%     54.74% # Type of FU issued
system.cpu0.iq.FU_type_0::SimdShaSigma3             0      0.00%     54.74% # Type of FU issued
system.cpu0.iq.FU_type_0::SimdPredAlu               0      0.00%     54.74% # Type of FU issued
system.cpu0.iq.FU_type_0::MemRead           222800764     31.56%     86.31% # Type of FU issued
system.cpu0.iq.FU_type_0::MemWrite           96657162     13.69%    100.00% # Type of FU issued
system.cpu0.iq.FU_type_0::FloatMemRead             10      0.00%    100.00% # Type of FU issued
system.cpu0.iq.FU_type_0::FloatMemWrite            20      0.00%    100.00% # Type of FU issued
system.cpu0.iq.FU_type_0::IprAccess                 0      0.00%    100.00% # Type of FU issued
system.cpu0.iq.FU_type_0::InstPrefetch              0      0.00%    100.00% # Type of FU issued
system.cpu0.iq.FU_type_0::total             705877247                       # Type of FU issued
system.cpu0.iq.fp_alu_accesses                     56                       # Number of floating point alu accesses
system.cpu0.iq.fp_inst_queue_reads                108                       # Number of floating instruction queue reads
system.cpu0.iq.fp_inst_queue_wakeup_accesses           52                       # Number of floating instruction queue wakeup accesses
system.cpu0.iq.fp_inst_queue_writes                54                       # Number of floating instruction queue writes
system.cpu0.iq.fu_busy_cnt                    2040437                       # FU busy when requested
system.cpu0.iq.fu_busy_rate                  0.002891                       # FU busy rate (busy events/executed inst)
system.cpu0.iq.fu_full::No_OpClass                  0      0.00%      0.00% # attempts to use FU when none available
system.cpu0.iq.fu_full::IntAlu                 358645     17.58%     17.58% # attempts to use FU when none available
system.cpu0.iq.fu_full::IntMult                    49      0.00%     17.58% # attempts to use FU when none available
system.cpu0.iq.fu_full::IntDiv                 226959     11.12%     28.70% # attempts to use FU when none available
system.cpu0.iq.fu_full::FloatAdd                    0      0.00%     28.70% # attempts to use FU when none available
system.cpu0.iq.fu_full::FloatCmp                    0      0.00%     28.70% # attempts to use FU when none available
system.cpu0.iq.fu_full::FloatCvt                    0      0.00%     28.70% # attempts to use FU when none available
system.cpu0.iq.fu_full::FloatMult                   0      0.00%     28.70% # attempts to use FU when none available
system.cpu0.iq.fu_full::FloatMultAcc                0      0.00%     28.70% # attempts to use FU when none available
system.cpu0.iq.fu_full::FloatDiv                    0      0.00%     28.70% # attempts to use FU when none available
system.cpu0.iq.fu_full::FloatMisc                   0      0.00%     28.70% # attempts to use FU when none available
system.cpu0.iq.fu_full::FloatSqrt                   0      0.00%     28.70% # attempts to use FU when none available
system.cpu0.iq.fu_full::SimdAdd                     0      0.00%     28.70% # attempts to use FU when none available
system.cpu0.iq.fu_full::SimdAddAcc                  0      0.00%     28.70% # attempts to use FU when none available
system.cpu0.iq.fu_full::SimdAlu                     0      0.00%     28.70% # attempts to use FU when none available
system.cpu0.iq.fu_full::SimdCmp                     0      0.00%     28.70% # attempts to use FU when none available
system.cpu0.iq.fu_full::SimdCvt                     0      0.00%     28.70% # attempts to use FU when none available
system.cpu0.iq.fu_full::SimdMisc                    0      0.00%     28.70% # attempts to use FU when none available
system.cpu0.iq.fu_full::SimdMult                    0      0.00%     28.70% # attempts to use FU when none available
system.cpu0.iq.fu_full::SimdMultAcc                 0      0.00%     28.70% # attempts to use FU when none available
system.cpu0.iq.fu_full::SimdShift                   0      0.00%     28.70% # attempts to use FU when none available
system.cpu0.iq.fu_full::SimdShiftAcc                0      0.00%     28.70% # attempts to use FU when none available
system.cpu0.iq.fu_full::SimdDiv                     0      0.00%     28.70% # attempts to use FU when none available
system.cpu0.iq.fu_full::SimdSqrt                    0      0.00%     28.70% # attempts to use FU when none available
system.cpu0.iq.fu_full::SimdFloatAdd                0      0.00%     28.70% # attempts to use FU when none available
system.cpu0.iq.fu_full::SimdFloatAlu                0      0.00%     28.70% # attempts to use FU when none available
system.cpu0.iq.fu_full::SimdFloatCmp                0      0.00%     28.70% # attempts to use FU when none available
system.cpu0.iq.fu_full::SimdFloatCvt                0      0.00%     28.70% # attempts to use FU when none available
system.cpu0.iq.fu_full::SimdFloatDiv                0      0.00%     28.70% # attempts to use FU when none available
system.cpu0.iq.fu_full::SimdFloatMisc               0      0.00%     28.70% # attempts to use FU when none available
system.cpu0.iq.fu_full::SimdFloatMult               0      0.00%     28.70% # attempts to use FU when none available
system.cpu0.iq.fu_full::SimdFloatMultAcc            0      0.00%     28.70% # attempts to use FU when none available
system.cpu0.iq.fu_full::SimdFloatSqrt               0      0.00%     28.70% # attempts to use FU when none available
system.cpu0.iq.fu_full::SimdReduceAdd               0      0.00%     28.70% # attempts to use FU when none available
system.cpu0.iq.fu_full::SimdReduceAlu               0      0.00%     28.70% # attempts to use FU when none available
system.cpu0.iq.fu_full::SimdReduceCmp               0      0.00%     28.70% # attempts to use FU when none available
system.cpu0.iq.fu_full::SimdFloatReduceAdd            0      0.00%     28.70% # attempts to use FU when none available
system.cpu0.iq.fu_full::SimdFloatReduceCmp            0      0.00%     28.70% # attempts to use FU when none available
system.cpu0.iq.fu_full::SimdAes                     0      0.00%     28.70% # attempts to use FU when none available
system.cpu0.iq.fu_full::SimdAesMix                  0      0.00%     28.70% # attempts to use FU when none available
system.cpu0.iq.fu_full::SimdSha1Hash                0      0.00%     28.70% # attempts to use FU when none available
system.cpu0.iq.fu_full::SimdSha1Hash2               0      0.00%     28.70% # attempts to use FU when none available
system.cpu0.iq.fu_full::SimdSha256Hash              0      0.00%     28.70% # attempts to use FU when none available
system.cpu0.iq.fu_full::SimdSha256Hash2             0      0.00%     28.70% # attempts to use FU when none available
system.cpu0.iq.fu_full::SimdShaSigma2               0      0.00%     28.70% # attempts to use FU when none available
system.cpu0.iq.fu_full::SimdShaSigma3               0      0.00%     28.70% # attempts to use FU when none available
system.cpu0.iq.fu_full::SimdPredAlu                 0      0.00%     28.70% # attempts to use FU when none available
system.cpu0.iq.fu_full::MemRead               1256908     61.60%     90.30% # attempts to use FU when none available
system.cpu0.iq.fu_full::MemWrite               197872      9.70%    100.00% # attempts to use FU when none available
system.cpu0.iq.fu_full::FloatMemRead                0      0.00%    100.00% # attempts to use FU when none available
system.cpu0.iq.fu_full::FloatMemWrite               4      0.00%    100.00% # attempts to use FU when none available
system.cpu0.iq.fu_full::IprAccess                   0      0.00%    100.00% # attempts to use FU when none available
system.cpu0.iq.fu_full::InstPrefetch                0      0.00%    100.00% # attempts to use FU when none available
system.cpu0.iq.int_alu_accesses             705879048                       # Number of integer alu accesses
system.cpu0.iq.int_inst_queue_reads        2538472510                       # Number of integer instruction queue reads
system.cpu0.iq.int_inst_queue_wakeup_accesses    693657031                       # Number of integer instruction queue wakeup accesses
system.cpu0.iq.int_inst_queue_writes        798344388                       # Number of integer instruction queue writes
system.cpu0.iq.iqInstsAdded                 708406434                       # Number of instructions added to the IQ (excludes non-spec)
system.cpu0.iq.iqInstsIssued                705877247                       # Number of instructions issued
system.cpu0.iq.iqNonSpecInstsAdded            3059061                       # Number of non-speculative instructions added to the IQ
system.cpu0.iq.iqSquashedInstsExamined       86869559                       # Number of squashed instructions iterated over during squash; mainly for profiling
system.cpu0.iq.iqSquashedInstsIssued           131618                       # Number of squashed instructions issued
system.cpu0.iq.iqSquashedNonSpecRemoved           546                       # Number of squashed non-spec instructions that were removed
system.cpu0.iq.iqSquashedOperandsExamined     19898267                       # Number of squashed operands that are examined and possibly removed from graph
system.cpu0.iq.issued_per_cycle::samples   1124546070                       # Number of insts issued each cycle
system.cpu0.iq.issued_per_cycle::mean        0.627700                       # Number of insts issued each cycle
system.cpu0.iq.issued_per_cycle::stdev       0.846167                       # Number of insts issued each cycle
system.cpu0.iq.issued_per_cycle::underflows            0      0.00%      0.00% # Number of insts issued each cycle
system.cpu0.iq.issued_per_cycle::0          621122603     55.23%     55.23% # Number of insts issued each cycle
system.cpu0.iq.issued_per_cycle::1          346906608     30.85%     86.08% # Number of insts issued each cycle
system.cpu0.iq.issued_per_cycle::2          125426429     11.15%     97.24% # Number of insts issued each cycle
system.cpu0.iq.issued_per_cycle::3           21491642      1.91%     99.15% # Number of insts issued each cycle
system.cpu0.iq.issued_per_cycle::4            6579246      0.59%     99.73% # Number of insts issued each cycle
system.cpu0.iq.issued_per_cycle::5            1181434      0.11%     99.84% # Number of insts issued each cycle
system.cpu0.iq.issued_per_cycle::6            1532354      0.14%     99.97% # Number of insts issued each cycle
system.cpu0.iq.issued_per_cycle::7             221455      0.02%     99.99% # Number of insts issued each cycle
system.cpu0.iq.issued_per_cycle::8              84299      0.01%    100.00% # Number of insts issued each cycle
system.cpu0.iq.issued_per_cycle::overflows            0      0.00%    100.00% # Number of insts issued each cycle
system.cpu0.iq.issued_per_cycle::min_value            0                       # Number of insts issued each cycle
system.cpu0.iq.issued_per_cycle::max_value            8                       # Number of insts issued each cycle
system.cpu0.iq.issued_per_cycle::total     1124546070                       # Number of insts issued each cycle
system.cpu0.iq.rate                          0.537706                       # Inst issue rate
system.cpu0.iq.vec_alu_accesses                     0                       # Number of vector alu accesses
system.cpu0.iq.vec_inst_queue_reads                 0                       # Number of vector instruction queue reads
system.cpu0.iq.vec_inst_queue_wakeup_accesses            0                       # Number of vector instruction queue wakeup accesses
system.cpu0.iq.vec_inst_queue_writes                0                       # Number of vector instruction queue writes
system.cpu0.itb.accesses                            0                       # DTB accesses
system.cpu0.itb.hits                                0                       # DTB hits
system.cpu0.itb.misses                              0                       # DTB misses
system.cpu0.itb.read_accesses                       0                       # DTB read accesses
system.cpu0.itb.read_hits                           0                       # DTB read hits
system.cpu0.itb.read_misses                         0                       # DTB read misses
system.cpu0.itb.write_accesses                      0                       # DTB write accesses
system.cpu0.itb.write_hits                          0                       # DTB write hits
system.cpu0.itb.write_misses                        0                       # DTB write misses
system.cpu0.memDep0.conflictingLoads         11776317                       # Number of conflicting loads.
system.cpu0.memDep0.conflictingStores         6378868                       # Number of conflicting stores.
system.cpu0.memDep0.insertedLoads           220408703                       # Number of loads inserted to the mem dependence unit.
system.cpu0.memDep0.insertedStores          100478097                       # Number of stores inserted to the mem dependence unit.
system.cpu0.misc_regfile_reads                    882                       # number of misc regfile reads
system.cpu0.misc_regfile_writes                    22                       # number of misc regfile writes
system.cpu0.numCycles                      1312756440                       # number of cpu cycles simulated
system.cpu0.numWorkItemsCompleted                   0                       # number of work items this cpu completed
system.cpu0.numWorkItemsStarted                     0                       # number of work items this cpu started
system.cpu0.quiesceCycles                     9990351                       # Total number of cycles that CPU has spent quiesced or waiting for an interrupt
system.cpu0.rename.BlockCycles              175890964                       # Number of cycles rename is blocking
system.cpu0.rename.CommittedMaps            399018093                       # Number of HB maps that are committed
system.cpu0.rename.IQFullEvents               7271673                       # Number of times rename has blocked due to IQ full
system.cpu0.rename.IdleCycles               412867151                       # Number of cycles rename is idle
system.cpu0.rename.LQFullEvents              10760338                       # Number of times rename has blocked due to LQ full
system.cpu0.rename.ROBFullEvents                21892                       # Number of times rename has blocked due to ROB full
system.cpu0.rename.RenameLookups            890438011                       # Number of register rename lookups that rename has made
system.cpu0.rename.RenamedInsts             719893846                       # Number of instructions processed by rename
system.cpu0.rename.RenamedOperands          460233113                       # Number of destination operands rename has renamed
system.cpu0.rename.RunCycles                505187940                       # Number of cycles rename is running
system.cpu0.rename.SQFullEvents               6963724                       # Number of times rename has blocked due to SQ full
system.cpu0.rename.SquashCycles               5042204                       # Number of cycles rename is squashing
system.cpu0.rename.UnblockCycles             25471768                       # Number of cycles rename is unblocking
system.cpu0.rename.UndoneMaps                61214953                       # Number of HB maps that are undone due to squashing
system.cpu0.rename.fp_rename_lookups               44                       # Number of floating rename lookups
system.cpu0.rename.int_rename_lookups       890437967                       # Number of integer rename lookups
system.cpu0.rename.serializeStallCycles         86043                       # count of cycles rename stalled for serializing inst
system.cpu0.rename.serializingInsts              2889                       # count of serializing insts renamed
system.cpu0.rename.skidInsts                 16318838                       # count of insts added to the skid buffer
system.cpu0.rename.tempSerializingInsts          2876                       # count of temporary serializing insts renamed
system.cpu0.rob.rob_reads                  1801764961                       # The number of ROB reads
system.cpu0.rob.rob_writes                 1437265787                       # The number of ROB writes
system.cpu0.timesIdled                       12502162                       # Number of times that the entire CPU went into an idle state and unscheduled itself
system.cpu0.workload.numSyscalls                  849                       # Number of system calls
system.cpu1.branchPred.BTBCorrect                   0                       # Number of correct BTB predictions (this stat may not work properly.
system.cpu1.branchPred.BTBHitPct            73.986000                       # BTB Hit Percentage
system.cpu1.branchPred.BTBHits                7085290                       # Number of BTB hits
system.cpu1.branchPred.BTBLookups             9576528                       # Number of BTB lookups
system.cpu1.branchPred.RASInCorrect                 0                       # Number of incorrect RAS predictions.
system.cpu1.branchPred.condIncorrect          1122189                       # Number of conditional branches incorrect
system.cpu1.branchPred.condPredicted         11033533                       # Number of conditional branches predicted
system.cpu1.branchPred.indirectHits            780804                       # Number of indirect target hits.
system.cpu1.branchPred.indirectLookups         934063                       # Number of indirect predictor lookups.
system.cpu1.branchPred.indirectMisses          153259                       # Number of indirect misses.
system.cpu1.branchPred.lookups               13354232                       # Number of BP lookups
system.cpu1.branchPred.usedRAS                      0                       # Number of times the RAS was used to get a target.
system.cpu1.branchPredindirectMispredicted        10098                       # Number of mispredicted indirect branches.
system.cpu1.commit.amos                       1017937                       # Number of atomic instructions committed
system.cpu1.commit.branchMispredicts           653611                       # The number of times a branch was mispredicted
system.cpu1.commit.branches                  10114587                       # Number of branches committed
system.cpu1.commit.bw_lim_events              2558740                       # number cycles where commit BW limit reached
system.cpu1.commit.commitNonSpecStalls        3054474                       # The number of times commit has been forced to stall to communicate backwards
system.cpu1.commit.commitSquashedInsts        8818131                       # The number of squashed insts skipped by commit
system.cpu1.commit.committedInsts            57389513                       # Number of instructions committed
system.cpu1.commit.committedOps              58407624                       # Number of ops (including micro ops) committed
system.cpu1.commit.committed_per_cycle::samples    216712767                       # Number of insts commited each cycle
system.cpu1.commit.committed_per_cycle::mean     0.269516                       # Number of insts commited each cycle
system.cpu1.commit.committed_per_cycle::stdev     1.096252                       # Number of insts commited each cycle
system.cpu1.commit.committed_per_cycle::underflows            0      0.00%      0.00% # Number of insts commited each cycle
system.cpu1.commit.committed_per_cycle::0    195034951     90.00%     90.00% # Number of insts commited each cycle
system.cpu1.commit.committed_per_cycle::1     10314231      4.76%     94.76% # Number of insts commited each cycle
system.cpu1.commit.committed_per_cycle::2      3904721      1.80%     96.56% # Number of insts commited each cycle
system.cpu1.commit.committed_per_cycle::3      2076994      0.96%     97.52% # Number of insts commited each cycle
system.cpu1.commit.committed_per_cycle::4      1354768      0.63%     98.14% # Number of insts commited each cycle
system.cpu1.commit.committed_per_cycle::5       829057      0.38%     98.52% # Number of insts commited each cycle
system.cpu1.commit.committed_per_cycle::6       456443      0.21%     98.73% # Number of insts commited each cycle
system.cpu1.commit.committed_per_cycle::7       182862      0.08%     98.82% # Number of insts commited each cycle
system.cpu1.commit.committed_per_cycle::8      2558740      1.18%    100.00% # Number of insts commited each cycle
system.cpu1.commit.committed_per_cycle::overflows            0      0.00%    100.00% # Number of insts commited each cycle
system.cpu1.commit.committed_per_cycle::min_value            0                       # Number of insts commited each cycle
system.cpu1.commit.committed_per_cycle::max_value            8                       # Number of insts commited each cycle
system.cpu1.commit.committed_per_cycle::total    216712767                       # Number of insts commited each cycle
system.cpu1.commit.fp_insts                        12                       # Number of committed floating point instructions.
system.cpu1.commit.function_calls             1442882                       # Number of function calls committed.
system.cpu1.commit.int_insts                 55971705                       # Number of committed integer instructions.
system.cpu1.commit.loads                     14460585                       # Number of loads committed
system.cpu1.commit.membars                    2035995                       # Number of memory barriers committed
system.cpu1.commit.op_class_0::No_OpClass      2035995      3.49%      3.49% # Class of committed instruction
system.cpu1.commit.op_class_0::IntAlu        34546870     59.15%     62.63% # Class of committed instruction
system.cpu1.commit.op_class_0::IntMult         248003      0.42%     63.06% # Class of committed instruction
system.cpu1.commit.op_class_0::IntDiv          493477      0.84%     63.90% # Class of committed instruction
system.cpu1.commit.op_class_0::FloatAdd             0      0.00%     63.90% # Class of committed instruction
system.cpu1.commit.op_class_0::FloatCmp             0      0.00%     63.90% # Class of committed instruction
system.cpu1.commit.op_class_0::FloatCvt             0      0.00%     63.90% # Class of committed instruction
system.cpu1.commit.op_class_0::FloatMult            0      0.00%     63.90% # Class of committed instruction
system.cpu1.commit.op_class_0::FloatMultAcc            0      0.00%     63.90% # Class of committed instruction
system.cpu1.commit.op_class_0::FloatDiv             0      0.00%     63.90% # Class of committed instruction
system.cpu1.commit.op_class_0::FloatMisc            0      0.00%     63.90% # Class of committed instruction
system.cpu1.commit.op_class_0::FloatSqrt            0      0.00%     63.90% # Class of committed instruction
system.cpu1.commit.op_class_0::SimdAdd              0      0.00%     63.90% # Class of committed instruction
system.cpu1.commit.op_class_0::SimdAddAcc            0      0.00%     63.90% # Class of committed instruction
system.cpu1.commit.op_class_0::SimdAlu              0      0.00%     63.90% # Class of committed instruction
system.cpu1.commit.op_class_0::SimdCmp              0      0.00%     63.90% # Class of committed instruction
system.cpu1.commit.op_class_0::SimdCvt              0      0.00%     63.90% # Class of committed instruction
system.cpu1.commit.op_class_0::SimdMisc             0      0.00%     63.90% # Class of committed instruction
system.cpu1.commit.op_class_0::SimdMult             0      0.00%     63.90% # Class of committed instruction
system.cpu1.commit.op_class_0::SimdMultAcc            0      0.00%     63.90% # Class of committed instruction
system.cpu1.commit.op_class_0::SimdShift            0      0.00%     63.90% # Class of committed instruction
system.cpu1.commit.op_class_0::SimdShiftAcc            0      0.00%     63.90% # Class of committed instruction
system.cpu1.commit.op_class_0::SimdDiv              0      0.00%     63.90% # Class of committed instruction
system.cpu1.commit.op_class_0::SimdSqrt             0      0.00%     63.90% # Class of committed instruction
system.cpu1.commit.op_class_0::SimdFloatAdd            0      0.00%     63.90% # Class of committed instruction
system.cpu1.commit.op_class_0::SimdFloatAlu            0      0.00%     63.90% # Class of committed instruction
system.cpu1.commit.op_class_0::SimdFloatCmp            0      0.00%     63.90% # Class of committed instruction
system.cpu1.commit.op_class_0::SimdFloatCvt            0      0.00%     63.90% # Class of committed instruction
system.cpu1.commit.op_class_0::SimdFloatDiv            0      0.00%     63.90% # Class of committed instruction
system.cpu1.commit.op_class_0::SimdFloatMisc            0      0.00%     63.90% # Class of committed instruction
system.cpu1.commit.op_class_0::SimdFloatMult            0      0.00%     63.90% # Class of committed instruction
system.cpu1.commit.op_class_0::SimdFloatMultAcc            0      0.00%     63.90% # Class of committed instruction
system.cpu1.commit.op_class_0::SimdFloatSqrt            0      0.00%     63.90% # Class of committed instruction
system.cpu1.commit.op_class_0::SimdReduceAdd            0      0.00%     63.90% # Class of committed instruction
system.cpu1.commit.op_class_0::SimdReduceAlu            0      0.00%     63.90% # Class of committed instruction
system.cpu1.commit.op_class_0::SimdReduceCmp            0      0.00%     63.90% # Class of committed instruction
system.cpu1.commit.op_class_0::SimdFloatReduceAdd            0      0.00%     63.90% # Class of committed instruction
system.cpu1.commit.op_class_0::SimdFloatReduceCmp            0      0.00%     63.90% # Class of committed instruction
system.cpu1.commit.op_class_0::SimdAes              0      0.00%     63.90% # Class of committed instruction
system.cpu1.commit.op_class_0::SimdAesMix            0      0.00%     63.90% # Class of committed instruction
system.cpu1.commit.op_class_0::SimdSha1Hash            0      0.00%     63.90% # Class of committed instruction
system.cpu1.commit.op_class_0::SimdSha1Hash2            0      0.00%     63.90% # Class of committed instruction
system.cpu1.commit.op_class_0::SimdSha256Hash            0      0.00%     63.90% # Class of committed instruction
system.cpu1.commit.op_class_0::SimdSha256Hash2            0      0.00%     63.90% # Class of committed instruction
system.cpu1.commit.op_class_0::SimdShaSigma2            0      0.00%     63.90% # Class of committed instruction
system.cpu1.commit.op_class_0::SimdShaSigma3            0      0.00%     63.90% # Class of committed instruction
system.cpu1.commit.op_class_0::SimdPredAlu            0      0.00%     63.90% # Class of committed instruction
system.cpu1.commit.op_class_0::MemRead       15478522     26.50%     90.40% # Class of committed instruction
system.cpu1.commit.op_class_0::MemWrite       5604745      9.60%    100.00% # Class of committed instruction
system.cpu1.commit.op_class_0::FloatMemRead            0      0.00%    100.00% # Class of committed instruction
system.cpu1.commit.op_class_0::FloatMemWrite           12      0.00%    100.00% # Class of committed instruction
system.cpu1.commit.op_class_0::IprAccess            0      0.00%    100.00% # Class of committed instruction
system.cpu1.commit.op_class_0::InstPrefetch            0      0.00%    100.00% # Class of committed instruction
system.cpu1.commit.op_class_0::total         58407624                       # Class of committed instruction
system.cpu1.commit.refs                      21083279                       # Number of memory references committed
system.cpu1.commit.swp_count                        0                       # Number of s/w prefetches committed
system.cpu1.commit.vec_insts                        0                       # Number of committed Vector instructions.
system.cpu1.committedInsts                   57389513                       # Number of Instructions Simulated
system.cpu1.committedOps                     58407624                       # Number of Ops (including micro ops) Simulated
system.cpu1.cpi                              3.815917                       # CPI: Cycles Per Instruction
system.cpu1.cpi_total                        3.815917                       # CPI: Total CPI of All Threads
system.cpu1.decode.BlockedCycles            173240621                       # Number of cycles decode is blocked
system.cpu1.decode.BranchMispred               475816                       # Number of times decode detected a branch misprediction
system.cpu1.decode.BranchResolved             6532158                       # Number of times decode resolved a branch
system.cpu1.decode.DecodedInsts              70917074                       # Number of instructions handled by decode
system.cpu1.decode.IdleCycles                 9504305                       # Number of cycles decode is idle
system.cpu1.decode.RunCycles                 32497755                       # Number of cycles decode is running
system.cpu1.decode.SquashCycles                653900                       # Number of cycles decode is squashing
system.cpu1.decode.SquashedInsts               946545                       # Number of squashed instructions handled by decode
system.cpu1.decode.UnblockCycles              2363754                       # Number of cycles decode is unblocking
system.cpu1.dtb.accesses                            0                       # DTB accesses
system.cpu1.dtb.hits                                0                       # DTB hits
system.cpu1.dtb.misses                              0                       # DTB misses
system.cpu1.dtb.read_accesses                       0                       # DTB read accesses
system.cpu1.dtb.read_hits                           0                       # DTB read hits
system.cpu1.dtb.read_misses                         0                       # DTB read misses
system.cpu1.dtb.write_accesses                      0                       # DTB write accesses
system.cpu1.dtb.write_hits                          0                       # DTB write hits
system.cpu1.dtb.write_misses                        0                       # DTB write misses
system.cpu1.fetch.Branches                   13354232                       # Number of branches that fetch encountered
system.cpu1.fetch.CacheLines                  9661135                       # Number of cache lines fetched
system.cpu1.fetch.Cycles                    206295000                       # Number of cycles fetch has run and was not squashing or blocked
system.cpu1.fetch.IcacheSquashes                96450                       # Number of outstanding Icache misses that were squashed
system.cpu1.fetch.Insts                      76638258                       # Number of instructions fetch has processed
system.cpu1.fetch.MiscStallCycles                   1                       # Number of cycles fetch has spent waiting on interrupts, or bad addresses, or out of MSHRs
system.cpu1.fetch.SquashCycles                2244956                       # Number of cycles fetch has spent squashing
system.cpu1.fetch.branchRate                 0.060980                       # Number of branch fetches per cycle
system.cpu1.fetch.icacheStallCycles          10842856                       # Number of cycles fetch is stalled on an Icache miss
system.cpu1.fetch.predictedBranches           7866094                       # Number of branches that fetch has predicted taken
system.cpu1.fetch.rate                       0.349957                       # Number of inst fetches per cycle
system.cpu1.fetch.rateDist::samples         218260335                       # Number of instructions fetched each cycle (Total)
system.cpu1.fetch.rateDist::mean             0.357693                       # Number of instructions fetched each cycle (Total)
system.cpu1.fetch.rateDist::stdev            0.822377                       # Number of instructions fetched each cycle (Total)
system.cpu1.fetch.rateDist::underflows              0      0.00%      0.00% # Number of instructions fetched each cycle (Total)
system.cpu1.fetch.rateDist::0               169419687     77.62%     77.62% # Number of instructions fetched each cycle (Total)
system.cpu1.fetch.rateDist::1                31218639     14.30%     91.93% # Number of instructions fetched each cycle (Total)
system.cpu1.fetch.rateDist::2                11131753      5.10%     97.03% # Number of instructions fetched each cycle (Total)
system.cpu1.fetch.rateDist::3                 3667989      1.68%     98.71% # Number of instructions fetched each cycle (Total)
system.cpu1.fetch.rateDist::4                 1009976      0.46%     99.17% # Number of instructions fetched each cycle (Total)
system.cpu1.fetch.rateDist::5                 1330052      0.61%     99.78% # Number of instructions fetched each cycle (Total)
system.cpu1.fetch.rateDist::6                  482006      0.22%    100.00% # Number of instructions fetched each cycle (Total)
system.cpu1.fetch.rateDist::7                       7      0.00%    100.00% # Number of instructions fetched each cycle (Total)
system.cpu1.fetch.rateDist::8                     226      0.00%    100.00% # Number of instructions fetched each cycle (Total)
system.cpu1.fetch.rateDist::overflows               0      0.00%    100.00% # Number of instructions fetched each cycle (Total)
system.cpu1.fetch.rateDist::min_value               0                       # Number of instructions fetched each cycle (Total)
system.cpu1.fetch.rateDist::max_value               8                       # Number of instructions fetched each cycle (Total)
system.cpu1.fetch.rateDist::total           218260335                       # Number of instructions fetched each cycle (Total)
system.cpu1.fp_regfile_reads                       12                       # number of floating regfile reads
system.cpu1.idleCycles                         733309                       # Total number of cycles that the CPU has spent unscheduled due to idling
system.cpu1.iew.branchMispredicts              688811                       # Number of branch mispredicts detected at execute
system.cpu1.iew.exec_branches                11198592                       # Number of branches executed
system.cpu1.iew.exec_nop                            0                       # number of nop insts executed
system.cpu1.iew.exec_rate                    0.286701                       # Inst execution rate
system.cpu1.iew.exec_refs                    22248137                       # number of memory reference insts executed
system.cpu1.iew.exec_stores                   6780896                       # Number of stores executed
system.cpu1.iew.exec_swp                            0                       # number of swp insts executed
system.cpu1.iew.iewBlockCycles              148356407                       # Number of cycles IEW is blocking
system.cpu1.iew.iewDispLoadInsts             16398750                       # Number of dispatched load instructions
system.cpu1.iew.iewDispNonSpecInsts           1188225                       # Number of dispatched non-speculative instructions
system.cpu1.iew.iewDispSquashedInsts           789779                       # Number of squashed instructions skipped by dispatch
system.cpu1.iew.iewDispStoreInsts             7490498                       # Number of dispatched store instructions
system.cpu1.iew.iewDispatchedInsts           67216562                       # Number of instructions dispatched to IQ
system.cpu1.iew.iewExecLoadInsts             15467241                       # Number of load instructions executed
system.cpu1.iew.iewExecSquashedInsts           659134                       # Number of squashed instructions skipped in execute
system.cpu1.iew.iewExecutedInsts             62785647                       # Number of executed instructions
system.cpu1.iew.iewIQFullEvents                905022                       # Number of times the IQ has become full, causing a stall
system.cpu1.iew.iewIdleCycles                       0                       # Number of cycles IEW is idle
system.cpu1.iew.iewLSQFullEvents              2710082                       # Number of times the LSQ has become full, causing a stall
system.cpu1.iew.iewSquashCycles                653900                       # Number of cycles IEW is squashing
system.cpu1.iew.iewUnblockCycles              4828632                       # Number of cycles IEW is unblocking
system.cpu1.iew.lsq.thread0.blockedLoads            0                       # Number of blocked loads due to partial load-store forwarding
system.cpu1.iew.lsq.thread0.cacheBlocked        14310                       # Number of times an access to memory failed due to the cache being blocked
system.cpu1.iew.lsq.thread0.forwLoads          546862                       # Number of loads that had data forwarded from stores
system.cpu1.iew.lsq.thread0.ignoredResponses         5566                       # Number of memory responses ignored because the instruction is squashed
system.cpu1.iew.lsq.thread0.invAddrLoads            0                       # Number of loads ignored due to an invalid address
system.cpu1.iew.lsq.thread0.invAddrSwpfs            0                       # Number of software prefetches ignored due to an invalid address
system.cpu1.iew.lsq.thread0.memOrderViolation          303                       # Number of memory ordering violations
system.cpu1.iew.lsq.thread0.rescheduledLoads          167                       # Number of loads that were rescheduled
system.cpu1.iew.lsq.thread0.squashedLoads      1938165                       # Number of loads squashed
system.cpu1.iew.lsq.thread0.squashedStores       867804                       # Number of stores squashed
system.cpu1.iew.memOrderViolationEvents           303                       # Number of memory order violations
system.cpu1.iew.predictedNotTakenIncorrect        77355                       # Number of branches that were predicted not taken incorrectly
system.cpu1.iew.predictedTakenIncorrect        611456                       # Number of branches that were predicted taken incorrectly
system.cpu1.iew.wb_consumers                 36439081                       # num instructions consuming a value
system.cpu1.iew.wb_count                     62470288                       # cumulative count of insts written-back
system.cpu1.iew.wb_fanout                    0.826377                       # average fanout of values written-back
system.cpu1.iew.wb_producers                 30112434                       # num instructions producing a value
system.cpu1.iew.wb_rate                      0.285261                       # insts written-back per cycle
system.cpu1.iew.wb_sent                      62493664                       # cumulative count of insts sent to commit
system.cpu1.int_regfile_reads                80170714                       # number of integer regfile reads
system.cpu1.int_regfile_writes               44239904                       # number of integer regfile writes
system.cpu1.ipc                              0.262060                       # IPC: Instructions Per Cycle
system.cpu1.ipc_total                        0.262060                       # IPC: Total IPC of All Threads
system.cpu1.iq.FU_type_0::No_OpClass          2036095      3.21%      3.21% # Type of FU issued
system.cpu1.iq.FU_type_0::IntAlu             38283461     60.34%     63.55% # Type of FU issued
system.cpu1.iq.FU_type_0::IntMult              248038      0.39%     63.94% # Type of FU issued
system.cpu1.iq.FU_type_0::IntDiv               493546      0.78%     64.72% # Type of FU issued
system.cpu1.iq.FU_type_0::FloatAdd                  0      0.00%     64.72% # Type of FU issued
system.cpu1.iq.FU_type_0::FloatCmp                  0      0.00%     64.72% # Type of FU issued
system.cpu1.iq.FU_type_0::FloatCvt                  0      0.00%     64.72% # Type of FU issued
system.cpu1.iq.FU_type_0::FloatMult                 0      0.00%     64.72% # Type of FU issued
system.cpu1.iq.FU_type_0::FloatMultAcc              0      0.00%     64.72% # Type of FU issued
system.cpu1.iq.FU_type_0::FloatDiv                  0      0.00%     64.72% # Type of FU issued
system.cpu1.iq.FU_type_0::FloatMisc                 0      0.00%     64.72% # Type of FU issued
system.cpu1.iq.FU_type_0::FloatSqrt                 0      0.00%     64.72% # Type of FU issued
system.cpu1.iq.FU_type_0::SimdAdd                   0      0.00%     64.72% # Type of FU issued
system.cpu1.iq.FU_type_0::SimdAddAcc                0      0.00%     64.72% # Type of FU issued
system.cpu1.iq.FU_type_0::SimdAlu                   0      0.00%     64.72% # Type of FU issued
system.cpu1.iq.FU_type_0::SimdCmp                   0      0.00%     64.72% # Type of FU issued
system.cpu1.iq.FU_type_0::SimdCvt                   0      0.00%     64.72% # Type of FU issued
system.cpu1.iq.FU_type_0::SimdMisc                  0      0.00%     64.72% # Type of FU issued
system.cpu1.iq.FU_type_0::SimdMult                  0      0.00%     64.72% # Type of FU issued
system.cpu1.iq.FU_type_0::SimdMultAcc               0      0.00%     64.72% # Type of FU issued
system.cpu1.iq.FU_type_0::SimdShift                 0      0.00%     64.72% # Type of FU issued
system.cpu1.iq.FU_type_0::SimdShiftAcc              0      0.00%     64.72% # Type of FU issued
system.cpu1.iq.FU_type_0::SimdDiv                   0      0.00%     64.72% # Type of FU issued
system.cpu1.iq.FU_type_0::SimdSqrt                  0      0.00%     64.72% # Type of FU issued
system.cpu1.iq.FU_type_0::SimdFloatAdd              0      0.00%     64.72% # Type of FU issued
system.cpu1.iq.FU_type_0::SimdFloatAlu              0      0.00%     64.72% # Type of FU issued
system.cpu1.iq.FU_type_0::SimdFloatCmp              0      0.00%     64.72% # Type of FU issued
system.cpu1.iq.FU_type_0::SimdFloatCvt              0      0.00%     64.72% # Type of FU issued
system.cpu1.iq.FU_type_0::SimdFloatDiv              0      0.00%     64.72% # Type of FU issued
system.cpu1.iq.FU_type_0::SimdFloatMisc             0      0.00%     64.72% # Type of FU issued
system.cpu1.iq.FU_type_0::SimdFloatMult             0      0.00%     64.72% # Type of FU issued
system.cpu1.iq.FU_type_0::SimdFloatMultAcc            0      0.00%     64.72% # Type of FU issued
system.cpu1.iq.FU_type_0::SimdFloatSqrt             0      0.00%     64.72% # Type of FU issued
system.cpu1.iq.FU_type_0::SimdReduceAdd             0      0.00%     64.72% # Type of FU issued
system.cpu1.iq.FU_type_0::SimdReduceAlu             0      0.00%     64.72% # Type of FU issued
system.cpu1.iq.FU_type_0::SimdReduceCmp             0      0.00%     64.72% # Type of FU issued
system.cpu1.iq.FU_type_0::SimdFloatReduceAdd            0      0.00%     64.72% # Type of FU issued
system.cpu1.iq.FU_type_0::SimdFloatReduceCmp            0      0.00%     64.72% # Type of FU issued
system.cpu1.iq.FU_type_0::SimdAes                   0      0.00%     64.72% # Type of FU issued
system.cpu1.iq.FU_type_0::SimdAesMix                0      0.00%     64.72% # Type of FU issued
system.cpu1.iq.FU_type_0::SimdSha1Hash              0      0.00%     64.72% # Type of FU issued
system.cpu1.iq.FU_type_0::SimdSha1Hash2             0      0.00%     64.72% # Type of FU issued
system.cpu1.iq.FU_type_0::SimdSha256Hash            0      0.00%     64.72% # Type of FU issued
system.cpu1.iq.FU_type_0::SimdSha256Hash2            0      0.00%     64.72% # Type of FU issued
system.cpu1.iq.FU_type_0::SimdShaSigma2             0      0.00%     64.72% # Type of FU issued
system.cpu1.iq.FU_type_0::SimdShaSigma3             0      0.00%     64.72% # Type of FU issued
system.cpu1.iq.FU_type_0::SimdPredAlu               0      0.00%     64.72% # Type of FU issued
system.cpu1.iq.FU_type_0::MemRead            16598856     26.16%     90.88% # Type of FU issued
system.cpu1.iq.FU_type_0::MemWrite            5784773      9.12%    100.00% # Type of FU issued
system.cpu1.iq.FU_type_0::FloatMemRead              0      0.00%    100.00% # Type of FU issued
system.cpu1.iq.FU_type_0::FloatMemWrite            12      0.00%    100.00% # Type of FU issued
system.cpu1.iq.FU_type_0::IprAccess                 0      0.00%    100.00% # Type of FU issued
system.cpu1.iq.FU_type_0::InstPrefetch              0      0.00%    100.00% # Type of FU issued
system.cpu1.iq.FU_type_0::total              63444781                       # Type of FU issued
system.cpu1.iq.fp_alu_accesses                     16                       # Number of floating point alu accesses
system.cpu1.iq.fp_inst_queue_reads                 28                       # Number of floating instruction queue reads
system.cpu1.iq.fp_inst_queue_wakeup_accesses           12                       # Number of floating instruction queue wakeup accesses
system.cpu1.iq.fp_inst_queue_writes                12                       # Number of floating instruction queue writes
system.cpu1.iq.fu_busy_cnt                    1702228                       # FU busy when requested
system.cpu1.iq.fu_busy_rate                  0.026830                       # FU busy rate (busy events/executed inst)
system.cpu1.iq.fu_full::No_OpClass                  0      0.00%      0.00% # attempts to use FU when none available
system.cpu1.iq.fu_full::IntAlu                 222914     13.10%     13.10% # attempts to use FU when none available
system.cpu1.iq.fu_full::IntMult                  1306      0.08%     13.17% # attempts to use FU when none available
system.cpu1.iq.fu_full::IntDiv                 247484     14.54%     27.71% # attempts to use FU when none available
system.cpu1.iq.fu_full::FloatAdd                    0      0.00%     27.71% # attempts to use FU when none available
system.cpu1.iq.fu_full::FloatCmp                    0      0.00%     27.71% # attempts to use FU when none available
system.cpu1.iq.fu_full::FloatCvt                    0      0.00%     27.71% # attempts to use FU when none available
system.cpu1.iq.fu_full::FloatMult                   0      0.00%     27.71% # attempts to use FU when none available
system.cpu1.iq.fu_full::FloatMultAcc                0      0.00%     27.71% # attempts to use FU when none available
system.cpu1.iq.fu_full::FloatDiv                    0      0.00%     27.71% # attempts to use FU when none available
system.cpu1.iq.fu_full::FloatMisc                   0      0.00%     27.71% # attempts to use FU when none available
system.cpu1.iq.fu_full::FloatSqrt                   0      0.00%     27.71% # attempts to use FU when none available
system.cpu1.iq.fu_full::SimdAdd                     0      0.00%     27.71% # attempts to use FU when none available
system.cpu1.iq.fu_full::SimdAddAcc                  0      0.00%     27.71% # attempts to use FU when none available
system.cpu1.iq.fu_full::SimdAlu                     0      0.00%     27.71% # attempts to use FU when none available
system.cpu1.iq.fu_full::SimdCmp                     0      0.00%     27.71% # attempts to use FU when none available
system.cpu1.iq.fu_full::SimdCvt                     0      0.00%     27.71% # attempts to use FU when none available
system.cpu1.iq.fu_full::SimdMisc                    0      0.00%     27.71% # attempts to use FU when none available
system.cpu1.iq.fu_full::SimdMult                    0      0.00%     27.71% # attempts to use FU when none available
system.cpu1.iq.fu_full::SimdMultAcc                 0      0.00%     27.71% # attempts to use FU when none available
system.cpu1.iq.fu_full::SimdShift                   0      0.00%     27.71% # attempts to use FU when none available
system.cpu1.iq.fu_full::SimdShiftAcc                0      0.00%     27.71% # attempts to use FU when none available
system.cpu1.iq.fu_full::SimdDiv                     0      0.00%     27.71% # attempts to use FU when none available
system.cpu1.iq.fu_full::SimdSqrt                    0      0.00%     27.71% # attempts to use FU when none available
system.cpu1.iq.fu_full::SimdFloatAdd                0      0.00%     27.71% # attempts to use FU when none available
system.cpu1.iq.fu_full::SimdFloatAlu                0      0.00%     27.71% # attempts to use FU when none available
system.cpu1.iq.fu_full::SimdFloatCmp                0      0.00%     27.71% # attempts to use FU when none available
system.cpu1.iq.fu_full::SimdFloatCvt                0      0.00%     27.71% # attempts to use FU when none available
system.cpu1.iq.fu_full::SimdFloatDiv                0      0.00%     27.71% # attempts to use FU when none available
system.cpu1.iq.fu_full::SimdFloatMisc               0      0.00%     27.71% # attempts to use FU when none available
system.cpu1.iq.fu_full::SimdFloatMult               0      0.00%     27.71% # attempts to use FU when none available
system.cpu1.iq.fu_full::SimdFloatMultAcc            0      0.00%     27.71% # attempts to use FU when none available
system.cpu1.iq.fu_full::SimdFloatSqrt               0      0.00%     27.71% # attempts to use FU when none available
system.cpu1.iq.fu_full::SimdReduceAdd               0      0.00%     27.71% # attempts to use FU when none available
system.cpu1.iq.fu_full::SimdReduceAlu               0      0.00%     27.71% # attempts to use FU when none available
system.cpu1.iq.fu_full::SimdReduceCmp               0      0.00%     27.71% # attempts to use FU when none available
system.cpu1.iq.fu_full::SimdFloatReduceAdd            0      0.00%     27.71% # attempts to use FU when none available
system.cpu1.iq.fu_full::SimdFloatReduceCmp            0      0.00%     27.71% # attempts to use FU when none available
system.cpu1.iq.fu_full::SimdAes                     0      0.00%     27.71% # attempts to use FU when none available
system.cpu1.iq.fu_full::SimdAesMix                  0      0.00%     27.71% # attempts to use FU when none available
system.cpu1.iq.fu_full::SimdSha1Hash                0      0.00%     27.71% # attempts to use FU when none available
system.cpu1.iq.fu_full::SimdSha1Hash2               0      0.00%     27.71% # attempts to use FU when none available
system.cpu1.iq.fu_full::SimdSha256Hash              0      0.00%     27.71% # attempts to use FU when none available
system.cpu1.iq.fu_full::SimdSha256Hash2             0      0.00%     27.71% # attempts to use FU when none available
system.cpu1.iq.fu_full::SimdShaSigma2               0      0.00%     27.71% # attempts to use FU when none available
system.cpu1.iq.fu_full::SimdShaSigma3               0      0.00%     27.71% # attempts to use FU when none available
system.cpu1.iq.fu_full::SimdPredAlu                 0      0.00%     27.71% # attempts to use FU when none available
system.cpu1.iq.fu_full::MemRead               1101980     64.74%     92.45% # attempts to use FU when none available
system.cpu1.iq.fu_full::MemWrite               128540      7.55%    100.00% # attempts to use FU when none available
[...]
system.cpu1.dcache.WriteReq_misses::total      2950038                       # number of WriteReq misses
system.cpu1.dcache.WriteReq_miss_latency::.cpu1.data 182231338679                       # number of WriteReq miss cycles
system.cpu1.dcache.WriteReq_miss_latency::total 182231338679                       # number of WriteReq miss cycles
system.cpu1.dcache.WriteReq_accesses::.cpu1.data     10393971                       # number of WriteReq accesses(hits+misses)
system.cpu1.dcache.WriteReq_accesses::total     10393971                       # number of WriteReq accesses(hits+misses)
system.cpu1.dcache.WriteReq_miss_rate::.cpu1.data     0.283822                       # miss rate for WriteReq accesses
system.cpu1.dcache.WriteReq_miss_rate::total     0.283822                       # miss rate for WriteReq accesses
system.cpu1.dcache.WriteReq_avg_miss_latency::.cpu1.data 61772.539431                       # average WriteReq miss latency
system.cpu1.dcache.WriteReq_avg_miss_latency::total 61772.539431                       # average WriteReq miss latency
system.cpu1.dcache.WriteReq_mshr_hits::.cpu1.data      1835277                       # number of WriteReq MSHR hits
system.cpu1.dcache.WriteReq_mshr_hits::total      1835277                       # number of WriteReq MSHR hits
system.cpu1.dcache.WriteReq_mshr_misses::.cpu1.data      1114761                       # number of WriteReq MSHR misses
system.cpu1.dcache.WriteReq_mshr_misses::total      1114761                       # number of WriteReq MSHR misses
system.cpu1.dcache.WriteReq_mshr_miss_latency::.cpu1.data  83279354191                       # number of WriteReq MSHR miss cycles
system.cpu1.dcache.WriteReq_mshr_miss_latency::total  83279354191                       # number of WriteReq MSHR miss cycles
system.cpu1.dcache.WriteReq_mshr_miss_rate::.cpu1.data     0.107251                       # mshr miss rate for WriteReq accesses
system.cpu1.dcache.WriteReq_mshr_miss_rate::total     0.107251                       # mshr miss rate for WriteReq accesses
system.cpu1.dcache.WriteReq_avg_mshr_miss_latency::.cpu1.data 74706.016977                       # average WriteReq mshr miss latency
system.cpu1.dcache.WriteReq_avg_mshr_miss_latency::total 74706.016977                       # average WriteReq mshr miss latency
system.cpu1.dcache.LoadLockedReq_hits::.cpu1.data       633438                       # number of LoadLockedReq hits
system.cpu1.dcache.LoadLockedReq_hits::total       633438                       # number of LoadLockedReq hits
system.cpu1.dcache.LoadLockedReq_misses::.cpu1.data        75759                       # number of LoadLockedReq misses
system.cpu1.dcache.LoadLockedReq_misses::total        75759                       # number of LoadLockedReq misses
system.cpu1.dcache.LoadLockedReq_miss_latency::.cpu1.data   4179461500                       # number of LoadLockedReq miss cycles
system.cpu1.dcache.LoadLockedReq_miss_latency::total   4179461500                       # number of LoadLockedReq miss cycles
system.cpu1.dcache.LoadLockedReq_accesses::.cpu1.data       709197                       # number of LoadLockedReq accesses(hits+misses)
system.cpu1.dcache.LoadLockedReq_accesses::total       709197                       # number of LoadLockedReq accesses(hits+misses)
system.cpu1.dcache.LoadLockedReq_miss_rate::.cpu1.data     0.106824                       # miss rate for LoadLockedReq accesses
system.cpu1.dcache.LoadLockedReq_miss_rate::total     0.106824                       # miss rate for LoadLockedReq accesses
system.cpu1.dcache.LoadLockedReq_avg_miss_latency::.cpu1.data 55167.854644                       # average LoadLockedReq miss latency
system.cpu1.dcache.LoadLockedReq_avg_miss_latency::total 55167.854644                       # average LoadLockedReq miss latency
system.cpu1.dcache.LoadLockedReq_mshr_hits::.cpu1.data        38330                       # number of LoadLockedReq MSHR hits
system.cpu1.dcache.LoadLockedReq_mshr_hits::total        38330                       # number of LoadLockedReq MSHR hits
system.cpu1.dcache.LoadLockedReq_mshr_misses::.cpu1.data        37429                       # number of LoadLockedReq MSHR misses
system.cpu1.dcache.LoadLockedReq_mshr_misses::total        37429                       # number of LoadLockedReq MSHR misses
system.cpu1.dcache.LoadLockedReq_mshr_miss_latency::.cpu1.data   2697809000                       # number of LoadLockedReq MSHR miss cycles
system.cpu1.dcache.LoadLockedReq_mshr_miss_latency::total   2697809000                       # number of LoadLockedReq MSHR miss cycles
system.cpu1.dcache.LoadLockedReq_mshr_miss_rate::.cpu1.data     0.052777                       # mshr miss rate for LoadLockedReq accesses
system.cpu1.dcache.LoadLockedReq_mshr_miss_rate::total     0.052777                       # mshr miss rate for LoadLockedReq accesses
system.cpu1.dcache.LoadLockedReq_avg_mshr_miss_latency::.cpu1.data 72078.041091                       # average LoadLockedReq mshr miss latency
system.cpu1.dcache.LoadLockedReq_avg_mshr_miss_latency::total 72078.041091                       # average LoadLockedReq mshr miss latency
system.cpu1.dcache.StoreCondReq_hits::.cpu1.data       620070                       # number of StoreCondReq hits
system.cpu1.dcache.StoreCondReq_hits::total       620070                       # number of StoreCondReq hits
system.cpu1.dcache.StoreCondReq_misses::.cpu1.data        44446                       # number of StoreCondReq misses
system.cpu1.dcache.StoreCondReq_misses::total        44446                       # number of StoreCondReq misses
system.cpu1.dcache.StoreCondReq_miss_latency::.cpu1.data    333437500                       # number of StoreCondReq miss cycles
system.cpu1.dcache.StoreCondReq_miss_latency::total    333437500                       # number of StoreCondReq miss cycles
system.cpu1.dcache.StoreCondReq_accesses::.cpu1.data       664516                       # number of StoreCondReq accesses(hits+misses)
system.cpu1.dcache.StoreCondReq_accesses::total       664516                       # number of StoreCondReq accesses(hits+misses)
system.cpu1.dcache.StoreCondReq_miss_rate::.cpu1.data     0.066885                       # miss rate for StoreCondReq accesses
system.cpu1.dcache.StoreCondReq_miss_rate::total     0.066885                       # miss rate for StoreCondReq accesses
system.cpu1.dcache.StoreCondReq_avg_miss_latency::.cpu1.data  7502.081177                       # average StoreCondReq miss latency
system.cpu1.dcache.StoreCondReq_avg_miss_latency::total  7502.081177                       # average StoreCondReq miss latency
system.cpu1.dcache.StoreCondReq_mshr_misses::.cpu1.data        44435                       # number of StoreCondReq MSHR misses
system.cpu1.dcache.StoreCondReq_mshr_misses::total        44435                       # number of StoreCondReq MSHR misses
system.cpu1.dcache.StoreCondReq_mshr_miss_latency::.cpu1.data    289249500                       # number of StoreCondReq MSHR miss cycles
system.cpu1.dcache.StoreCondReq_mshr_miss_latency::total    289249500                       # number of StoreCondReq MSHR miss cycles
system.cpu1.dcache.StoreCondReq_mshr_miss_rate::.cpu1.data     0.066868                       # mshr miss rate for StoreCondReq accesses
system.cpu1.dcache.StoreCondReq_mshr_miss_rate::total     0.066868                       # mshr miss rate for StoreCondReq accesses
system.cpu1.dcache.StoreCondReq_avg_mshr_miss_latency::.cpu1.data  6509.497018                       # average StoreCondReq mshr miss latency
system.cpu1.dcache.StoreCondReq_avg_mshr_miss_latency::total  6509.497018                       # average StoreCondReq mshr miss latency
system.cpu1.dcache.StoreCondFailReq_miss_latency::.cpu1.data      3466500                       # number of StoreCondFailReq miss cycles
system.cpu1.dcache.StoreCondFailReq_miss_latency::total      3466500                       # number of StoreCondFailReq miss cycles
system.cpu1.dcache.StoreCondFailReq_avg_miss_latency::.cpu1.data          inf                       # average StoreCondFailReq miss latency
system.cpu1.dcache.StoreCondFailReq_avg_miss_latency::total          inf                       # average StoreCondFailReq miss latency
system.cpu1.dcache.StoreCondFailReq_mshr_miss_latency::.cpu1.data      3219500                       # number of StoreCondFailReq MSHR miss cycles
system.cpu1.dcache.StoreCondFailReq_mshr_miss_latency::total      3219500                       # number of StoreCondFailReq MSHR miss cycles
system.cpu1.dcache.StoreCondFailReq_avg_mshr_miss_latency::.cpu1.data          inf                       # average StoreCondFailReq mshr miss latency
system.cpu1.dcache.StoreCondFailReq_avg_mshr_miss_latency::total          inf                       # average StoreCondFailReq mshr miss latency
system.cpu1.dcache.SwapReq_hits::.cpu1.data       116795                       # number of SwapReq hits
system.cpu1.dcache.SwapReq_hits::total         116795                       # number of SwapReq hits
system.cpu1.dcache.SwapReq_misses::.cpu1.data        46801                       # number of SwapReq misses
system.cpu1.dcache.SwapReq_misses::total        46801                       # number of SwapReq misses
system.cpu1.dcache.SwapReq_miss_latency::.cpu1.data    443441474                       # number of SwapReq miss cycles
system.cpu1.dcache.SwapReq_miss_latency::total    443441474                       # number of SwapReq miss cycles
system.cpu1.dcache.SwapReq_accesses::.cpu1.data       163596                       # number of SwapReq accesses(hits+misses)
system.cpu1.dcache.SwapReq_accesses::total       163596                       # number of SwapReq accesses(hits+misses)
system.cpu1.dcache.SwapReq_miss_rate::.cpu1.data     0.286077                       # miss rate for SwapReq accesses
system.cpu1.dcache.SwapReq_miss_rate::total     0.286077                       # miss rate for SwapReq accesses
system.cpu1.dcache.SwapReq_avg_miss_latency::.cpu1.data  9475.042713                       # average SwapReq miss latency
system.cpu1.dcache.SwapReq_avg_miss_latency::total  9475.042713                       # average SwapReq miss latency
system.cpu1.dcache.SwapReq_mshr_hits::.cpu1.data          228                       # number of SwapReq MSHR hits
system.cpu1.dcache.SwapReq_mshr_hits::total          228                       # number of SwapReq MSHR hits
system.cpu1.dcache.SwapReq_mshr_misses::.cpu1.data        46573                       # number of SwapReq MSHR misses
system.cpu1.dcache.SwapReq_mshr_misses::total        46573                       # number of SwapReq MSHR misses
system.cpu1.dcache.SwapReq_mshr_miss_latency::.cpu1.data    391891474                       # number of SwapReq MSHR miss cycles
system.cpu1.dcache.SwapReq_mshr_miss_latency::total    391891474                       # number of SwapReq MSHR miss cycles
system.cpu1.dcache.SwapReq_mshr_miss_rate::.cpu1.data     0.284683                       # mshr miss rate for SwapReq accesses
system.cpu1.dcache.SwapReq_mshr_miss_rate::total     0.284683                       # mshr miss rate for SwapReq accesses
system.cpu1.dcache.SwapReq_avg_mshr_miss_latency::.cpu1.data  8414.563674                       # average SwapReq mshr miss latency
system.cpu1.dcache.SwapReq_avg_mshr_miss_latency::total  8414.563674                       # average SwapReq mshr miss latency
system.cpu1.dcache.tags.pwrStateResidencyTicks::UNDEFINED 621410072000                       # Cumulative time (in ticks) in various power states
system.cpu1.dcache.tags.tagsinuse           31.762261                       # Cycle average of tags in use
system.cpu1.dcache.tags.total_refs           52480786                       # Total number of references to valid blocks.
system.cpu1.dcache.tags.sampled_refs          8232005                       # Sample count of references to valid blocks.
system.cpu1.dcache.tags.avg_refs             6.375213                       # Average number of references to valid blocks.
system.cpu1.dcache.tags.warmup_cycle                0                       # Cycle when the warmup percentage was hit.
system.cpu1.dcache.tags.occ_blocks::.cpu1.data    31.762261                       # Average occupied blocks per requestor
system.cpu1.dcache.tags.occ_percent::.cpu1.data     0.992571                       # Average percentage of cache occupancy
system.cpu1.dcache.tags.occ_percent::total     0.992571                       # Average percentage of cache occupancy
system.cpu1.dcache.tags.occ_task_id_blocks::1024           29                       # Occupied blocks per task id
system.cpu1.dcache.tags.age_task_id_blocks_1024::1            5                       # Occupied blocks per task id
system.cpu1.dcache.tags.age_task_id_blocks_1024::2           24                       # Occupied blocks per task id
system.cpu1.dcache.tags.occ_task_id_percent::1024     0.906250                       # Percentage of cache occupancy per task id
system.cpu1.dcache.tags.tag_accesses        131929384                       # Number of tag accesses
system.cpu1.dcache.tags.data_accesses       131929384                       # Number of data accesses
system.cpu_clk_domain.clock                       500                       # Clock period in ticks
system.tol2bus.pwrStateResidencyTicks::UNDEFINED 621410072000                       # Cumulative time (in ticks) in various power states
system.tol2bus.trans_dist::ReadResp          21628868                       # Transaction distribution
system.tol2bus.trans_dist::WritebackDirty      8944438                       # Transaction distribution
system.tol2bus.trans_dist::WritebackClean     18635098                       # Transaction distribution
system.tol2bus.trans_dist::CleanEvict        41927526                       # Transaction distribution
system.tol2bus.trans_dist::HardPFReq         20973600                       # Transaction distribution
system.tol2bus.trans_dist::HardPFResp              57                       # Transaction distribution
system.tol2bus.trans_dist::UpgradeReq          155330                       # Transaction distribution
system.tol2bus.trans_dist::SCUpgradeReq         87893                       # Transaction distribution
system.tol2bus.trans_dist::UpgradeResp         243223                       # Transaction distribution
system.tol2bus.trans_dist::SCUpgradeFailReq          393                       # Transaction distribution
system.tol2bus.trans_dist::UpgradeFailResp          393                       # Transaction distribution
system.tol2bus.trans_dist::ReadExReq          2000978                       # Transaction distribution
system.tol2bus.trans_dist::ReadExResp         2000979                       # Transaction distribution
system.tol2bus.trans_dist::ReadCleanReq       7454584                       # Transaction distribution
system.tol2bus.trans_dist::ReadSharedReq     14174284                       # Transaction distribution
system.tol2bus.trans_dist::InvalidateReq        15776                       # Transaction distribution
system.tol2bus.trans_dist::InvalidateResp        15776                       # Transaction distribution
system.tol2bus.pkt_count_system.cpu0.icache.mem_side::system.l2.cpu_side      8932522                       # Packet count per connected master and slave (bytes)
system.tol2bus.pkt_count_system.cpu0.dcache.mem_side::system.l2.cpu_side     23738922                       # Packet count per connected master and slave (bytes)
system.tol2bus.pkt_count_system.cpu1.icache.mem_side::system.l2.cpu_side     13426852                       # Packet count per connected master and slave (bytes)
system.tol2bus.pkt_count_system.cpu1.dcache.mem_side::system.l2.cpu_side     24489414                       # Packet count per connected master and slave (bytes)
system.tol2bus.pkt_count::total              70587710                       # Packet count per connected master and slave (bytes)
system.tol2bus.pkt_size_system.cpu0.icache.mem_side::system.l2.cpu_side    381070080                       # Cumulative packet size per connected master and slave (bytes)
system.tol2bus.pkt_size_system.cpu0.dcache.mem_side::system.l2.cpu_side    998362112                       # Cumulative packet size per connected master and slave (bytes)
system.tol2bus.pkt_size_system.cpu1.icache.mem_side::system.l2.cpu_side    572836480                       # Cumulative packet size per connected master and slave (bytes)
system.tol2bus.pkt_size_system.cpu1.dcache.mem_side::system.l2.cpu_side   1031305216                       # Cumulative packet size per connected master and slave (bytes)
system.tol2bus.pkt_size::total             2983573888                       # Cumulative packet size per connected master and slave (bytes)
system.tol2bus.snoops                        67671543                       # Total snoops (count)
system.tol2bus.snoopTraffic                 293859072                       # Total snoop traffic (bytes)
system.tol2bus.snoop_fanout::samples         91017596                       # Request fanout histogram
system.tol2bus.snoop_fanout::mean            0.271444                       # Request fanout histogram
system.tol2bus.snoop_fanout::stdev           0.500135                       # Request fanout histogram
system.tol2bus.snoop_fanout::underflows             0      0.00%      0.00% # Request fanout histogram
system.tol2bus.snoop_fanout::0               68564507     75.33%     75.33% # Request fanout histogram
system.tol2bus.snoop_fanout::1               20330329     22.34%     97.67% # Request fanout histogram
system.tol2bus.snoop_fanout::2                1992426      2.19%     99.86% # Request fanout histogram
system.tol2bus.snoop_fanout::3                 130334      0.14%    100.00% # Request fanout histogram
system.tol2bus.snoop_fanout::4                      0      0.00%    100.00% # Request fanout histogram
system.tol2bus.snoop_fanout::5                      0      0.00%    100.00% # Request fanout histogram
system.tol2bus.snoop_fanout::6                      0      0.00%    100.00% # Request fanout histogram
system.tol2bus.snoop_fanout::7                      0      0.00%    100.00% # Request fanout histogram
system.tol2bus.snoop_fanout::8                      0      0.00%    100.00% # Request fanout histogram
system.tol2bus.snoop_fanout::overflows              0      0.00%    100.00% # Request fanout histogram
system.tol2bus.snoop_fanout::min_value              0                       # Request fanout histogram
system.tol2bus.snoop_fanout::max_value              3                       # Request fanout histogram
system.tol2bus.snoop_fanout::total           91017596                       # Request fanout histogram
system.tol2bus.reqLayer0.occupancy        46974279925                       # Layer occupancy (ticks)
system.tol2bus.reqLayer0.utilization              7.6                       # Layer utilization (%)
system.tol2bus.respLayer1.occupancy       12008235814                       # Layer occupancy (ticks)
system.tol2bus.respLayer1.utilization             1.9                       # Layer utilization (%)
system.tol2bus.respLayer0.occupancy        4479972377                       # Layer occupancy (ticks)
system.tol2bus.respLayer0.utilization             0.7                       # Layer utilization (%)
system.tol2bus.respLayer3.occupancy       12410625045                       # Layer occupancy (ticks)
system.tol2bus.respLayer3.utilization             2.0                       # Layer utilization (%)
system.tol2bus.respLayer2.occupancy        6725495771                       # Layer occupancy (ticks)
system.tol2bus.respLayer2.utilization             1.1                       # Layer utilization (%)
system.tol2bus.snoopLayer0.occupancy            85511                       # Layer occupancy (ticks)
system.tol2bus.snoopLayer0.utilization            0.0                       # Layer utilization (%)

---------- End Simulation Statistics   ----------
