Redirecting stdout to /vol1/msoyturk/gem5/results/bc/dblp.el/prefetch_DCPTPrefetcher_LIPRP/output.txt
Redirecting stderr to /vol1/msoyturk/gem5/results/bc/dblp.el/prefetch_DCPTPrefetcher_LIPRP/error.txt
gem5 Simulator System.  http://gem5.org
gem5 is copyrighted software; use the --copyright option for details.

gem5 compiled Apr 26 2020 13:32:47
gem5 started Apr 26 2020 22:28:30
gem5 executing on draco, pid 9421
command line: /vol1/msoyturk/gem5/build/RISCV/gem5.fast -re --outdir=/vol1/msoyturk/gem5/results/bc/dblp.el/prefetch_DCPTPrefetcher_LIPRP --stdout-file=output.txt --stderr-file=error.txt /vol1/msoyturk/gem5/configs/example/my_se.py -c /vol1/msoyturk/gem5/gapbs/bc -o '-f /vol1/msoyturk/gem5/gapbs/test/graphs/dblp.el' --caches --l1d_size=2kB --l1i_size=2kB --cpu-type=DerivO3CPU -n 4 --mem-size=512MB --l2cache --l2_size=4kB --l2-hwp-type=DCPTPrefetcher --l2-replacement-policy=LIPRP --l1i_mshrs=4 --l1d_mshrs=4 --l2_mshrs=20 --l1i_write_buffers=8 --l1d_write_buffers=8 --l2_write_buffers=8

info: Standard input is not a terminal, disabling listeners.
Warning: l2-hwp-type is set ( DCPTPrefetcher ), but the current l2 has a default Hardware Prefetcher of type <class 'm5.params.NullSimObject'> , using the specified by the flag option.
Global frequency set at 1000000000000 ticks per second
**** REAL SIMULATION ****
Read Time:           1.29812
Build Time:          0.21138
Graph has 425957 nodes and 1049866 directed edges for degree: 2
    a                0.00054
source: 85136
    b                0.00193
    p                0.00063
Trial Time:          0.00927
    a                0.00054
source: 174172
    b                0.00091
    p                0.00003
Trial Time:          0.00763
    a                0.00055
source: 394951
    b                0.00091
    p                0.00003
Trial Time:          0.00763
    a                0.00054
source: 101549
    b                0.00092
    p                0.00004
Trial Time:          0.00765
    a                0.00054
source: 362397
    b                0.00091
    p                0.00003
Trial Time:          0.00763
    a                0.00055
source: 74869
    b                0.00845
    p                0.00422
Trial Time:          0.01937
    a                0.00054
source: 330191
    b                0.00091
    p                0.00003
Trial Time:          0.00765
    a                0.00054
source: 133608
    b                0.00090
    p                0.00003
Trial Time:          0.00763
    a                0.00055
source: 170715
    b                0.00091
    p                0.00003
Trial Time:          0.00763
    a                0.00054
source: 44340
    b                0.00608
    p                0.00294
Trial Time:          0.01572
    a                0.00055
source: 221784
    b                0.00091
    p                0.00003
Trial Time:          0.00763
    a                0.00054
source: 88856
    b                0.00112
    p                0.00017
Trial Time:          0.00798
    a                0.00054
source: 388999
    b                0.00091
    p                0.00003
Trial Time:          0.00763
    a                0.00054
source: 19623
    b                0.00091
    p                0.00003
Trial Time:          0.00763
    a                0.00054
source: 338711
    b                0.00091
    p                0.00003
Trial Time:          0.00763
    a                0.00054
source: 379423
    b                0.00091
    p                0.00003
Trial Time:          0.00763
Average Time:        0.00900
Exiting @ tick 1741255169000 because exiting with last active thread context
